* NGSPICE file created from peripheral.ext - technology: sky130A

* Black-box entry subcircuit for sky130_fd_sc_hd__tapvpwrvgnd_1 abstract view
.subckt sky130_fd_sc_hd__tapvpwrvgnd_1 VGND VPWR
.ends

* Black-box entry subcircuit for sky130_fd_sc_hd__fill_1 abstract view
.subckt sky130_fd_sc_hd__fill_1 VGND VNB VPB VPWR
.ends

* Black-box entry subcircuit for sky130_fd_sc_hd__decap_12 abstract view
.subckt sky130_fd_sc_hd__decap_12 VGND VNB VPB VPWR
.ends

* Black-box entry subcircuit for sky130_fd_sc_hd__decap_3 abstract view
.subckt sky130_fd_sc_hd__decap_3 VGND VNB VPB VPWR
.ends

* Black-box entry subcircuit for sky130_fd_sc_hd__diode_2 abstract view
.subckt sky130_fd_sc_hd__diode_2 DIODE VGND VNB VPB VPWR
.ends

* Black-box entry subcircuit for sky130_fd_sc_hd__mux2_1 abstract view
.subckt sky130_fd_sc_hd__mux2_1 A0 A1 S VGND VNB VPB VPWR X
.ends

* Black-box entry subcircuit for sky130_fd_sc_hd__buf_1 abstract view
.subckt sky130_fd_sc_hd__buf_1 A VGND VNB VPB VPWR X
.ends

* Black-box entry subcircuit for sky130_fd_sc_hd__dfxtp_2 abstract view
.subckt sky130_fd_sc_hd__dfxtp_2 CLK D VGND VNB VPB VPWR Q
.ends

* Black-box entry subcircuit for sky130_fd_sc_hd__decap_6 abstract view
.subckt sky130_fd_sc_hd__decap_6 VGND VNB VPB VPWR
.ends

* Black-box entry subcircuit for sky130_fd_sc_hd__decap_8 abstract view
.subckt sky130_fd_sc_hd__decap_8 VGND VNB VPB VPWR
.ends

* Black-box entry subcircuit for sky130_fd_sc_hd__o221a_2 abstract view
.subckt sky130_fd_sc_hd__o221a_2 A1 A2 B1 B2 C1 VGND VNB VPB VPWR X
.ends

* Black-box entry subcircuit for sky130_fd_sc_hd__and3b_2 abstract view
.subckt sky130_fd_sc_hd__and3b_2 A_N B C VGND VNB VPB VPWR X
.ends

* Black-box entry subcircuit for sky130_fd_sc_hd__clkbuf_2 abstract view
.subckt sky130_fd_sc_hd__clkbuf_2 A VGND VNB VPB VPWR X
.ends

* Black-box entry subcircuit for sky130_fd_sc_hd__inv_2 abstract view
.subckt sky130_fd_sc_hd__inv_2 A VGND VNB VPB VPWR Y
.ends

* Black-box entry subcircuit for sky130_fd_sc_hd__nor2_2 abstract view
.subckt sky130_fd_sc_hd__nor2_2 A B VGND VNB VPB VPWR Y
.ends

* Black-box entry subcircuit for sky130_fd_sc_hd__conb_1 abstract view
.subckt sky130_fd_sc_hd__conb_1 VGND VNB VPB VPWR HI LO
.ends

* Black-box entry subcircuit for sky130_fd_sc_hd__a21bo_2 abstract view
.subckt sky130_fd_sc_hd__a21bo_2 A1 A2 B1_N VGND VNB VPB VPWR X
.ends

* Black-box entry subcircuit for sky130_fd_sc_hd__decap_4 abstract view
.subckt sky130_fd_sc_hd__decap_4 VGND VNB VPB VPWR
.ends

* Black-box entry subcircuit for sky130_fd_sc_hd__or2_2 abstract view
.subckt sky130_fd_sc_hd__or2_2 A B VGND VNB VPB VPWR X
.ends

* Black-box entry subcircuit for sky130_fd_sc_hd__fill_2 abstract view
.subckt sky130_fd_sc_hd__fill_2 VGND VNB VPB VPWR
.ends

* Black-box entry subcircuit for sky130_fd_sc_hd__o22a_2 abstract view
.subckt sky130_fd_sc_hd__o22a_2 A1 A2 B1 B2 VGND VNB VPB VPWR X
.ends

* Black-box entry subcircuit for sky130_fd_sc_hd__and4b_2 abstract view
.subckt sky130_fd_sc_hd__and4b_2 A_N B C D VGND VNB VPB VPWR X
.ends

* Black-box entry subcircuit for sky130_fd_sc_hd__and2b_2 abstract view
.subckt sky130_fd_sc_hd__and2b_2 A_N B VGND VNB VPB VPWR X
.ends

* Black-box entry subcircuit for sky130_fd_sc_hd__or4_2 abstract view
.subckt sky130_fd_sc_hd__or4_2 A B C D VGND VNB VPB VPWR X
.ends

* Black-box entry subcircuit for sky130_fd_sc_hd__or3_2 abstract view
.subckt sky130_fd_sc_hd__or3_2 A B C VGND VNB VPB VPWR X
.ends

* Black-box entry subcircuit for sky130_fd_sc_hd__and2_2 abstract view
.subckt sky130_fd_sc_hd__and2_2 A B VGND VNB VPB VPWR X
.ends

* Black-box entry subcircuit for sky130_fd_sc_hd__a21oi_2 abstract view
.subckt sky130_fd_sc_hd__a21oi_2 A1 A2 B1 VGND VNB VPB VPWR Y
.ends

* Black-box entry subcircuit for sky130_fd_sc_hd__o21ai_2 abstract view
.subckt sky130_fd_sc_hd__o21ai_2 A1 A2 B1 VGND VNB VPB VPWR Y
.ends

* Black-box entry subcircuit for sky130_fd_sc_hd__a21o_2 abstract view
.subckt sky130_fd_sc_hd__a21o_2 A1 A2 B1 VGND VNB VPB VPWR X
.ends

* Black-box entry subcircuit for sky130_fd_sc_hd__o32a_2 abstract view
.subckt sky130_fd_sc_hd__o32a_2 A1 A2 A3 B1 B2 VGND VNB VPB VPWR X
.ends

* Black-box entry subcircuit for sky130_fd_sc_hd__inv_4 abstract view
.subckt sky130_fd_sc_hd__inv_4 A VGND VNB VPB VPWR Y
.ends

* Black-box entry subcircuit for sky130_fd_sc_hd__clkbuf_16 abstract view
.subckt sky130_fd_sc_hd__clkbuf_16 A VGND VNB VPB VPWR X
.ends

* Black-box entry subcircuit for sky130_fd_sc_hd__a21boi_2 abstract view
.subckt sky130_fd_sc_hd__a21boi_2 A1 A2 B1_N VGND VNB VPB VPWR Y
.ends

* Black-box entry subcircuit for sky130_fd_sc_hd__a31o_2 abstract view
.subckt sky130_fd_sc_hd__a31o_2 A1 A2 A3 B1 VGND VNB VPB VPWR X
.ends

* Black-box entry subcircuit for sky130_fd_sc_hd__o21a_2 abstract view
.subckt sky130_fd_sc_hd__o21a_2 A1 A2 B1 VGND VNB VPB VPWR X
.ends

* Black-box entry subcircuit for sky130_fd_sc_hd__o2111a_2 abstract view
.subckt sky130_fd_sc_hd__o2111a_2 A1 A2 B1 C1 D1 VGND VNB VPB VPWR X
.ends

* Black-box entry subcircuit for sky130_fd_sc_hd__nand2_2 abstract view
.subckt sky130_fd_sc_hd__nand2_2 A B VGND VNB VPB VPWR Y
.ends

* Black-box entry subcircuit for sky130_fd_sc_hd__a22o_2 abstract view
.subckt sky130_fd_sc_hd__a22o_2 A1 A2 B1 B2 VGND VNB VPB VPWR X
.ends

* Black-box entry subcircuit for sky130_fd_sc_hd__o211a_2 abstract view
.subckt sky130_fd_sc_hd__o211a_2 A1 A2 B1 C1 VGND VNB VPB VPWR X
.ends

* Black-box entry subcircuit for sky130_fd_sc_hd__o311a_2 abstract view
.subckt sky130_fd_sc_hd__o311a_2 A1 A2 A3 B1 C1 VGND VNB VPB VPWR X
.ends

* Black-box entry subcircuit for sky130_fd_sc_hd__nor3_2 abstract view
.subckt sky130_fd_sc_hd__nor3_2 A B C VGND VNB VPB VPWR Y
.ends

* Black-box entry subcircuit for sky130_fd_sc_hd__buf_2 abstract view
.subckt sky130_fd_sc_hd__buf_2 A VGND VNB VPB VPWR X
.ends

* Black-box entry subcircuit for sky130_fd_sc_hd__and3_2 abstract view
.subckt sky130_fd_sc_hd__and3_2 A B C VGND VNB VPB VPWR X
.ends

.subckt peripheral clk data_req_i reset rxd_uart slave_data_addr_i[0] slave_data_addr_i[1]
+ slave_data_addr_i[2] slave_data_addr_i[3] slave_data_addr_i[4] slave_data_addr_i[5]
+ slave_data_addr_i[6] slave_data_addr_i[7] slave_data_addr_i[8] slave_data_addr_i[9]
+ slave_data_be_i[0] slave_data_be_i[1] slave_data_be_i[2] slave_data_be_i[3] slave_data_gnt_o
+ slave_data_rdata_o[0] slave_data_rdata_o[10] slave_data_rdata_o[11] slave_data_rdata_o[12]
+ slave_data_rdata_o[13] slave_data_rdata_o[14] slave_data_rdata_o[15] slave_data_rdata_o[16]
+ slave_data_rdata_o[17] slave_data_rdata_o[18] slave_data_rdata_o[19] slave_data_rdata_o[1]
+ slave_data_rdata_o[20] slave_data_rdata_o[21] slave_data_rdata_o[22] slave_data_rdata_o[23]
+ slave_data_rdata_o[24] slave_data_rdata_o[25] slave_data_rdata_o[26] slave_data_rdata_o[27]
+ slave_data_rdata_o[28] slave_data_rdata_o[29] slave_data_rdata_o[2] slave_data_rdata_o[30]
+ slave_data_rdata_o[31] slave_data_rdata_o[3] slave_data_rdata_o[4] slave_data_rdata_o[5]
+ slave_data_rdata_o[6] slave_data_rdata_o[7] slave_data_rdata_o[8] slave_data_rdata_o[9]
+ slave_data_rvalid_o slave_data_wdata_i[0] slave_data_wdata_i[10] slave_data_wdata_i[11]
+ slave_data_wdata_i[12] slave_data_wdata_i[13] slave_data_wdata_i[14] slave_data_wdata_i[15]
+ slave_data_wdata_i[16] slave_data_wdata_i[17] slave_data_wdata_i[18] slave_data_wdata_i[19]
+ slave_data_wdata_i[1] slave_data_wdata_i[20] slave_data_wdata_i[21] slave_data_wdata_i[22]
+ slave_data_wdata_i[23] slave_data_wdata_i[24] slave_data_wdata_i[25] slave_data_wdata_i[26]
+ slave_data_wdata_i[27] slave_data_wdata_i[28] slave_data_wdata_i[29] slave_data_wdata_i[2]
+ slave_data_wdata_i[30] slave_data_wdata_i[31] slave_data_wdata_i[3] slave_data_wdata_i[4]
+ slave_data_wdata_i[5] slave_data_wdata_i[6] slave_data_wdata_i[7] slave_data_wdata_i[8]
+ slave_data_wdata_i[9] slave_data_we_i txd_uart vccd1 vssd1
XTAP_177 vssd1 vccd1 sky130_fd_sc_hd__tapvpwrvgnd_1
XTAP_188 vssd1 vccd1 sky130_fd_sc_hd__tapvpwrvgnd_1
XTAP_199 vssd1 vccd1 sky130_fd_sc_hd__tapvpwrvgnd_1
XFILLER_22_111 vssd1 vssd1 vccd1 vccd1 sky130_fd_sc_hd__fill_1
XFILLER_7_7 vssd1 vssd1 vccd1 vccd1 sky130_fd_sc_hd__fill_1
XFILLER_45_225 vssd1 vssd1 vccd1 vccd1 sky130_fd_sc_hd__decap_12
XFILLER_13_111 vssd1 vssd1 vccd1 vccd1 sky130_fd_sc_hd__fill_1
XFILLER_42_95 vssd1 vssd1 vccd1 vccd1 sky130_fd_sc_hd__decap_3
XFILLER_13_188 vssd1 vssd1 vccd1 vccd1 sky130_fd_sc_hd__decap_12
XANTENNA__0708__B1 slave_data_wdata_i[9] vssd1 vssd1 vccd1 vccd1 sky130_fd_sc_hd__diode_2
X_1270_ _1124_/B _1411_/Q _1288_/S vssd1 vssd1 vccd1 vccd1 _1270_/X sky130_fd_sc_hd__mux2_1
X_0985_ _0985_/A vssd1 vssd1 vccd1 vccd1 _1307_/D sky130_fd_sc_hd__buf_1
X_1399_ _1399_/CLK _1399_/D vssd1 vssd1 vccd1 vccd1 _1399_/Q sky130_fd_sc_hd__dfxtp_2
XFILLER_27_247 vssd1 vssd1 vccd1 vccd1 sky130_fd_sc_hd__fill_1
XFILLER_10_158 vssd1 vssd1 vccd1 vccd1 sky130_fd_sc_hd__decap_6
XFILLER_18_236 vssd1 vssd1 vccd1 vccd1 sky130_fd_sc_hd__decap_8
XFILLER_18_247 vssd1 vssd1 vccd1 vccd1 sky130_fd_sc_hd__decap_3
XANTENNA__1203__S _1293_/S vssd1 vssd1 vccd1 vccd1 sky130_fd_sc_hd__diode_2
XFILLER_41_261 vssd1 vssd1 vccd1 vccd1 sky130_fd_sc_hd__decap_8
XFILLER_33_239 vssd1 vssd1 vccd1 vccd1 sky130_fd_sc_hd__decap_8
X_0770_ _1388_/Q _0766_/X slave_data_wdata_i[2] _0767_/X _0769_/X vssd1 vssd1 vccd1
+ vccd1 _1388_/D sky130_fd_sc_hd__o221a_2
X_1322_ _1380_/CLK _1322_/D vssd1 vssd1 vccd1 vccd1 _1322_/Q sky130_fd_sc_hd__dfxtp_2
X_1253_ _1252_/X _1118_/B _1292_/S vssd1 vssd1 vccd1 vccd1 _1253_/X sky130_fd_sc_hd__mux2_1
XFILLER_24_206 vssd1 vssd1 vccd1 vccd1 sky130_fd_sc_hd__fill_1
X_1184_ _1183_/X _1128_/Y _1292_/S vssd1 vssd1 vccd1 vccd1 _1184_/X sky130_fd_sc_hd__mux2_1
X_0968_ _0967_/X _1219_/X _0970_/C vssd1 vssd1 vccd1 vccd1 _0969_/A sky130_fd_sc_hd__and3b_2
Xclkbuf_4_12_0_clk clkbuf_3_6_0_clk/X vssd1 vssd1 vccd1 vccd1 _1414_/CLK sky130_fd_sc_hd__clkbuf_2
X_0899_ _0899_/A vssd1 vssd1 vccd1 vccd1 _1340_/D sky130_fd_sc_hd__buf_1
XFILLER_23_53 vssd1 vssd1 vccd1 vccd1 sky130_fd_sc_hd__decap_3
XFILLER_0_57 vssd1 vssd1 vccd1 vccd1 sky130_fd_sc_hd__decap_12
X_0822_ _1330_/Q vssd1 vssd1 vccd1 vccd1 _0823_/C sky130_fd_sc_hd__inv_2
XANTENNA__1169__A slave_data_gnt_o vssd1 vssd1 vccd1 vccd1 sky130_fd_sc_hd__diode_2
XFILLER_14_261 vssd1 vssd1 vccd1 vccd1 sky130_fd_sc_hd__decap_8
Xclkbuf_3_1_0_clk clkbuf_0_clk/X vssd1 vssd1 vccd1 vccd1 clkbuf_4_3_0_clk/A sky130_fd_sc_hd__clkbuf_2
X_0753_ reset _0753_/B vssd1 vssd1 vccd1 vccd1 _1395_/D sky130_fd_sc_hd__nor2_2
X_0684_ _0713_/A vssd1 vssd1 vccd1 vccd1 _0684_/X sky130_fd_sc_hd__buf_1
X_1236_ _1288_/S _0731_/B _1289_/S vssd1 vssd1 vccd1 vccd1 _1236_/X sky130_fd_sc_hd__mux2_1
X_1305_ _1425_/CLK _1305_/D vssd1 vssd1 vccd1 vccd1 _1305_/Q sky130_fd_sc_hd__dfxtp_2
X_1167_ vssd1 vssd1 vccd1 vccd1 _1167_/HI slave_data_rdata_o[31] sky130_fd_sc_hd__conb_1
X_1098_ _1321_/Q _1104_/C _1097_/X vssd1 vssd1 vccd1 vccd1 _1098_/X sky130_fd_sc_hd__a21bo_2
XFILLER_18_53 vssd1 vssd1 vccd1 vccd1 sky130_fd_sc_hd__decap_8
XFILLER_11_264 vssd1 vssd1 vccd1 vccd1 sky130_fd_sc_hd__decap_4
XFILLER_38_139 vssd1 vssd1 vccd1 vccd1 sky130_fd_sc_hd__fill_1
X_1021_ _1021_/A vssd1 vssd1 vccd1 vccd1 _1025_/A sky130_fd_sc_hd__buf_1
X_0805_ _0812_/A vssd1 vssd1 vccd1 vccd1 _0805_/X sky130_fd_sc_hd__buf_1
X_0736_ _1340_/Q _0736_/B vssd1 vssd1 vccd1 vccd1 _0737_/B sky130_fd_sc_hd__or2_2
X_0667_ _0972_/A vssd1 vssd1 vccd1 vccd1 _0674_/A sky130_fd_sc_hd__buf_1
XFILLER_44_109 vssd1 vssd1 vccd1 vccd1 sky130_fd_sc_hd__decap_6
X_1219_ _1218_/X _1049_/X _1293_/S vssd1 vssd1 vccd1 vccd1 _1219_/X sky130_fd_sc_hd__mux2_1
XFILLER_29_106 vssd1 vssd1 vccd1 vccd1 sky130_fd_sc_hd__decap_4
XFILLER_20_21 vssd1 vssd1 vccd1 vccd1 sky130_fd_sc_hd__decap_6
XFILLER_29_74 vssd1 vssd1 vccd1 vccd1 sky130_fd_sc_hd__fill_2
XFILLER_43_175 vssd1 vssd1 vccd1 vccd1 sky130_fd_sc_hd__decap_12
XFILLER_43_164 vssd1 vssd1 vccd1 vccd1 sky130_fd_sc_hd__decap_4
XANTENNA__1211__S _1292_/S vssd1 vssd1 vccd1 vccd1 sky130_fd_sc_hd__diode_2
XTAP_304 vssd1 vccd1 sky130_fd_sc_hd__tapvpwrvgnd_1
XFILLER_13_3 vssd1 vssd1 vccd1 vccd1 sky130_fd_sc_hd__decap_6
XFILLER_19_183 vssd1 vssd1 vccd1 vccd1 sky130_fd_sc_hd__decap_3
XFILLER_34_197 vssd1 vssd1 vccd1 vccd1 sky130_fd_sc_hd__fill_1
X_1004_ _1295_/Q _0999_/A _1182_/X _0992_/X vssd1 vssd1 vccd1 vccd1 _1295_/D sky130_fd_sc_hd__o22a_2
X_0719_ _1400_/Q _0717_/X slave_data_wdata_i[3] _0718_/X _0713_/X vssd1 vssd1 vccd1
+ vccd1 _1400_/D sky130_fd_sc_hd__o221a_2
XFILLER_25_186 vssd1 vssd1 vccd1 vccd1 sky130_fd_sc_hd__decap_12
XANTENNA__1206__S _1289_/S vssd1 vssd1 vccd1 vccd1 sky130_fd_sc_hd__diode_2
XFILLER_31_167 vssd1 vssd1 vccd1 vccd1 sky130_fd_sc_hd__fill_1
XFILLER_31_101 vssd1 vssd1 vccd1 vccd1 sky130_fd_sc_hd__decap_3
XFILLER_39_223 vssd1 vssd1 vccd1 vccd1 sky130_fd_sc_hd__fill_1
XTAP_134 vssd1 vccd1 sky130_fd_sc_hd__tapvpwrvgnd_1
XTAP_123 vssd1 vccd1 sky130_fd_sc_hd__tapvpwrvgnd_1
XTAP_112 vssd1 vccd1 sky130_fd_sc_hd__tapvpwrvgnd_1
XTAP_101 vssd1 vccd1 sky130_fd_sc_hd__tapvpwrvgnd_1
XTAP_145 vssd1 vccd1 sky130_fd_sc_hd__tapvpwrvgnd_1
XTAP_156 vssd1 vccd1 sky130_fd_sc_hd__tapvpwrvgnd_1
XTAP_167 vssd1 vccd1 sky130_fd_sc_hd__tapvpwrvgnd_1
XTAP_178 vssd1 vccd1 sky130_fd_sc_hd__tapvpwrvgnd_1
XTAP_189 vssd1 vccd1 sky130_fd_sc_hd__tapvpwrvgnd_1
XFILLER_45_237 vssd1 vssd1 vccd1 vccd1 sky130_fd_sc_hd__decap_12
XFILLER_42_41 vssd1 vssd1 vccd1 vccd1 sky130_fd_sc_hd__decap_12
X_0984_ _0655_/B _0984_/B _1124_/A _0984_/D vssd1 vssd1 vccd1 vccd1 _0985_/A sky130_fd_sc_hd__and4b_2
X_1398_ _1399_/CLK _1398_/D vssd1 vssd1 vccd1 vccd1 _1398_/Q sky130_fd_sc_hd__dfxtp_2
XFILLER_12_66 vssd1 vssd1 vccd1 vccd1 sky130_fd_sc_hd__fill_1
X_1252_ _1110_/Y _1112_/Y _1291_/S vssd1 vssd1 vccd1 vccd1 _1252_/X sky130_fd_sc_hd__mux2_1
X_1321_ _1380_/CLK _1321_/D vssd1 vssd1 vccd1 vccd1 _1321_/Q sky130_fd_sc_hd__dfxtp_2
X_1183_ _1124_/B _1125_/X _1291_/S vssd1 vssd1 vccd1 vccd1 _1183_/X sky130_fd_sc_hd__mux2_1
X_0967_ _0967_/A vssd1 vssd1 vccd1 vccd1 _0967_/X sky130_fd_sc_hd__buf_1
X_0898_ _0891_/X _1178_/X vssd1 vssd1 vccd1 vccd1 _0899_/A sky130_fd_sc_hd__and2b_2
XFILLER_23_21 vssd1 vssd1 vccd1 vccd1 sky130_fd_sc_hd__decap_4
XANTENNA__1214__S _1291_/S vssd1 vssd1 vccd1 vccd1 sky130_fd_sc_hd__diode_2
XFILLER_0_69 vssd1 vssd1 vccd1 vccd1 sky130_fd_sc_hd__decap_4
X_0821_ _1328_/Q _1327_/Q vssd1 vssd1 vccd1 vccd1 _0823_/B sky130_fd_sc_hd__nor2_2
XFILLER_9_34 vssd1 vssd1 vccd1 vccd1 sky130_fd_sc_hd__fill_1
XFILLER_14_251 vssd1 vssd1 vccd1 vccd1 sky130_fd_sc_hd__fill_1
X_0752_ _0750_/Y _0693_/B _0751_/Y _0711_/A vssd1 vssd1 vccd1 vccd1 _0753_/B sky130_fd_sc_hd__o22a_2
XFILLER_43_3 vssd1 vssd1 vccd1 vccd1 sky130_fd_sc_hd__decap_12
X_0683_ _0984_/D vssd1 vssd1 vccd1 vccd1 _0713_/A sky130_fd_sc_hd__buf_1
X_1166_ vssd1 vssd1 vccd1 vccd1 _1166_/HI slave_data_rdata_o[30] sky130_fd_sc_hd__conb_1
X_1304_ _1348_/CLK _1304_/D vssd1 vssd1 vccd1 vccd1 _1304_/Q sky130_fd_sc_hd__dfxtp_2
X_1235_ _1400_/Q _1422_/Q _1269_/S vssd1 vssd1 vccd1 vccd1 _1235_/X sky130_fd_sc_hd__mux2_1
X_1097_ _1321_/Q _1104_/C vssd1 vssd1 vccd1 vccd1 _1097_/X sky130_fd_sc_hd__or2_2
XFILLER_20_232 vssd1 vssd1 vccd1 vccd1 sky130_fd_sc_hd__decap_4
XFILLER_7_225 vssd1 vssd1 vccd1 vccd1 sky130_fd_sc_hd__fill_1
XANTENNA__1209__S _1293_/S vssd1 vssd1 vccd1 vccd1 sky130_fd_sc_hd__diode_2
X_1020_ _1020_/A _1020_/B vssd1 vssd1 vccd1 vccd1 _1021_/A sky130_fd_sc_hd__or2_2
Xclkbuf_4_11_0_clk clkbuf_3_5_0_clk/X vssd1 vssd1 vccd1 vccd1 _1363_/CLK sky130_fd_sc_hd__clkbuf_2
XFILLER_15_7 vssd1 vssd1 vccd1 vccd1 sky130_fd_sc_hd__fill_1
X_0735_ _1338_/Q _1337_/Q _0735_/C _1137_/B vssd1 vssd1 vccd1 vccd1 _0736_/B sky130_fd_sc_hd__or4_2
X_0804_ _0811_/A vssd1 vssd1 vccd1 vccd1 _0804_/X sky130_fd_sc_hd__buf_1
X_0666_ _0666_/A vssd1 vssd1 vccd1 vccd1 _0666_/X sky130_fd_sc_hd__buf_1
X_1218_ _1217_/X _1054_/Y _1292_/S vssd1 vssd1 vccd1 vccd1 _1218_/X sky130_fd_sc_hd__mux2_1
X_1149_ _1345_/Q _0741_/B _0742_/B vssd1 vssd1 vccd1 vccd1 _1149_/X sky130_fd_sc_hd__a21bo_2
XANTENNA__1236__A0 _1288_/S vssd1 vssd1 vccd1 vccd1 sky130_fd_sc_hd__diode_2
XFILLER_45_85 vssd1 vssd1 vccd1 vccd1 sky130_fd_sc_hd__decap_12
XFILLER_45_41 vssd1 vssd1 vccd1 vccd1 sky130_fd_sc_hd__decap_12
XFILLER_43_187 vssd1 vssd1 vccd1 vccd1 sky130_fd_sc_hd__decap_12
Xclkbuf_3_0_0_clk clkbuf_0_clk/X vssd1 vssd1 vccd1 vccd1 clkbuf_4_1_0_clk/A sky130_fd_sc_hd__clkbuf_2
XFILLER_6_24 vssd1 vssd1 vccd1 vccd1 sky130_fd_sc_hd__decap_4
XTAP_305 vssd1 vccd1 sky130_fd_sc_hd__tapvpwrvgnd_1
X_1003_ _1296_/Q _0999_/X _1205_/X _0992_/X vssd1 vssd1 vccd1 vccd1 _1296_/D sky130_fd_sc_hd__o22a_2
X_0718_ _0718_/A vssd1 vssd1 vccd1 vccd1 _0718_/X sky130_fd_sc_hd__buf_1
X_0649_ _1313_/Q _1312_/Q _1034_/B vssd1 vssd1 vccd1 vccd1 _1048_/B sky130_fd_sc_hd__or3_2
XFILLER_15_55 vssd1 vssd1 vccd1 vccd1 sky130_fd_sc_hd__fill_1
XFILLER_25_121 vssd1 vssd1 vccd1 vccd1 sky130_fd_sc_hd__fill_2
XFILLER_25_198 vssd1 vssd1 vccd1 vccd1 sky130_fd_sc_hd__decap_3
XANTENNA__0680__A1 data_req_i vssd1 vssd1 vccd1 vccd1 sky130_fd_sc_hd__diode_2
XFILLER_0_253 vssd1 vssd1 vccd1 vccd1 sky130_fd_sc_hd__decap_12
XANTENNA__1222__S _1289_/S vssd1 vssd1 vccd1 vccd1 sky130_fd_sc_hd__diode_2
XFILLER_31_124 vssd1 vssd1 vccd1 vccd1 sky130_fd_sc_hd__fill_2
XTAP_135 vssd1 vccd1 sky130_fd_sc_hd__tapvpwrvgnd_1
XTAP_124 vssd1 vccd1 sky130_fd_sc_hd__tapvpwrvgnd_1
XTAP_113 vssd1 vccd1 sky130_fd_sc_hd__tapvpwrvgnd_1
XTAP_102 vssd1 vccd1 sky130_fd_sc_hd__tapvpwrvgnd_1
XTAP_146 vssd1 vccd1 sky130_fd_sc_hd__tapvpwrvgnd_1
XTAP_157 vssd1 vccd1 sky130_fd_sc_hd__tapvpwrvgnd_1
XTAP_168 vssd1 vccd1 sky130_fd_sc_hd__tapvpwrvgnd_1
XTAP_179 vssd1 vccd1 sky130_fd_sc_hd__tapvpwrvgnd_1
XFILLER_45_249 vssd1 vssd1 vccd1 vccd1 sky130_fd_sc_hd__decap_3
XFILLER_42_53 vssd1 vssd1 vccd1 vccd1 sky130_fd_sc_hd__decap_8
XFILLER_13_135 vssd1 vssd1 vccd1 vccd1 sky130_fd_sc_hd__decap_3
XANTENNA__1217__S _1291_/S vssd1 vssd1 vccd1 vccd1 sky130_fd_sc_hd__diode_2
XFILLER_36_205 vssd1 vssd1 vccd1 vccd1 sky130_fd_sc_hd__decap_3
X_0983_ _1062_/A vssd1 vssd1 vccd1 vccd1 _1124_/A sky130_fd_sc_hd__buf_1
XFILLER_8_172 vssd1 vssd1 vccd1 vccd1 sky130_fd_sc_hd__decap_12
X_1397_ _1399_/CLK _1397_/D vssd1 vssd1 vccd1 vccd1 _1397_/Q sky130_fd_sc_hd__dfxtp_2
XFILLER_27_227 vssd1 vssd1 vccd1 vccd1 sky130_fd_sc_hd__decap_4
XFILLER_27_238 vssd1 vssd1 vccd1 vccd1 sky130_fd_sc_hd__fill_1
XFILLER_12_23 vssd1 vssd1 vccd1 vccd1 sky130_fd_sc_hd__decap_4
XANTENNA__0929__A2 _1292_/S vssd1 vssd1 vccd1 vccd1 sky130_fd_sc_hd__diode_2
XFILLER_5_186 vssd1 vssd1 vccd1 vccd1 sky130_fd_sc_hd__decap_6
X_1320_ _1380_/CLK _1320_/D vssd1 vssd1 vccd1 vccd1 _1320_/Q sky130_fd_sc_hd__dfxtp_2
X_1182_ _1296_/Q _1387_/Q _1289_/S vssd1 vssd1 vccd1 vccd1 _1182_/X sky130_fd_sc_hd__mux2_1
X_1251_ _1250_/X _1151_/X _1290_/S vssd1 vssd1 vccd1 vccd1 _1251_/X sky130_fd_sc_hd__mux2_1
X_0966_ _0966_/A vssd1 vssd1 vccd1 vccd1 _1315_/D sky130_fd_sc_hd__buf_1
X_0897_ _0897_/A vssd1 vssd1 vccd1 vccd1 _1341_/D sky130_fd_sc_hd__buf_1
XFILLER_23_77 vssd1 vssd1 vccd1 vccd1 sky130_fd_sc_hd__decap_6
XFILLER_23_88 vssd1 vssd1 vccd1 vccd1 sky130_fd_sc_hd__decap_8
XFILLER_3_3 vssd1 vssd1 vccd1 vccd1 sky130_fd_sc_hd__decap_12
XFILLER_0_15 vssd1 vssd1 vccd1 vccd1 sky130_fd_sc_hd__decap_12
X_0820_ _1329_/Q vssd1 vssd1 vccd1 vccd1 _0823_/A sky130_fd_sc_hd__inv_2
X_0751_ slave_data_wdata_i[22] vssd1 vssd1 vccd1 vccd1 _0751_/Y sky130_fd_sc_hd__inv_2
XFILLER_36_3 vssd1 vssd1 vccd1 vccd1 sky130_fd_sc_hd__decap_6
X_0682_ _0720_/A vssd1 vssd1 vccd1 vccd1 _0984_/D sky130_fd_sc_hd__buf_1
X_1303_ _1394_/CLK _1303_/D vssd1 vssd1 vccd1 vccd1 slave_data_gnt_o sky130_fd_sc_hd__dfxtp_2
X_1165_ vssd1 vssd1 vccd1 vccd1 _1165_/HI slave_data_rdata_o[29] sky130_fd_sc_hd__conb_1
X_1234_ _1301_/Q _1392_/Q _1289_/S vssd1 vssd1 vccd1 vccd1 _1234_/X sky130_fd_sc_hd__mux2_1
X_1096_ _1099_/B vssd1 vssd1 vccd1 vccd1 _1096_/Y sky130_fd_sc_hd__inv_2
X_0949_ _0949_/A vssd1 vssd1 vccd1 vccd1 _1322_/D sky130_fd_sc_hd__buf_1
XFILLER_34_21 vssd1 vssd1 vccd1 vccd1 sky130_fd_sc_hd__fill_1
XFILLER_18_66 vssd1 vssd1 vccd1 vccd1 sky130_fd_sc_hd__decap_12
XANTENNA__0765__B1 slave_data_wdata_i[4] vssd1 vssd1 vccd1 vccd1 sky130_fd_sc_hd__diode_2
X_0734_ _1335_/Q _1334_/Q _1133_/B vssd1 vssd1 vccd1 vccd1 _1137_/B sky130_fd_sc_hd__or3_2
X_0803_ _0812_/A vssd1 vssd1 vccd1 vccd1 _0811_/A sky130_fd_sc_hd__inv_2
X_0665_ _1424_/Q _0657_/X _1361_/Q _0988_/B _0662_/X vssd1 vssd1 vccd1 vccd1 _1424_/D
+ sky130_fd_sc_hd__o221a_2
X_1217_ _1050_/B _1051_/X _1291_/S vssd1 vssd1 vccd1 vccd1 _1217_/X sky130_fd_sc_hd__mux2_1
X_1148_ _1344_/Q _0740_/B _0741_/B vssd1 vssd1 vccd1 vccd1 _1148_/X sky130_fd_sc_hd__a21bo_2
X_1079_ _1092_/A _1079_/B vssd1 vssd1 vccd1 vccd1 _1080_/A sky130_fd_sc_hd__and2_2
XFILLER_43_100 vssd1 vssd1 vccd1 vccd1 sky130_fd_sc_hd__decap_6
XFILLER_28_141 vssd1 vssd1 vccd1 vccd1 sky130_fd_sc_hd__decap_3
XFILLER_45_97 vssd1 vssd1 vccd1 vccd1 sky130_fd_sc_hd__decap_12
XFILLER_45_53 vssd1 vssd1 vccd1 vccd1 sky130_fd_sc_hd__decap_3
XFILLER_43_199 vssd1 vssd1 vccd1 vccd1 sky130_fd_sc_hd__decap_12
XTAP_306 vssd1 vccd1 sky130_fd_sc_hd__tapvpwrvgnd_1
X_1002_ _1297_/Q _0999_/X _1204_/X _0992_/X vssd1 vssd1 vccd1 vccd1 _1297_/D sky130_fd_sc_hd__o22a_2
X_0648_ _1311_/Q _0648_/B vssd1 vssd1 vccd1 vccd1 _1034_/B sky130_fd_sc_hd__or2_2
X_0717_ _0717_/A vssd1 vssd1 vccd1 vccd1 _0717_/X sky130_fd_sc_hd__buf_1
XFILLER_40_136 vssd1 vssd1 vccd1 vccd1 sky130_fd_sc_hd__fill_1
XFILLER_40_169 vssd1 vssd1 vccd1 vccd1 sky130_fd_sc_hd__decap_8
Xclkbuf_4_10_0_clk clkbuf_3_5_0_clk/X vssd1 vssd1 vccd1 vccd1 _1360_/CLK sky130_fd_sc_hd__clkbuf_2
XFILLER_31_55 vssd1 vssd1 vccd1 vccd1 sky130_fd_sc_hd__fill_1
XFILLER_0_221 vssd1 vssd1 vccd1 vccd1 sky130_fd_sc_hd__decap_3
XFILLER_0_265 vssd1 vssd1 vccd1 vccd1 sky130_fd_sc_hd__decap_4
XFILLER_31_169 vssd1 vssd1 vccd1 vccd1 sky130_fd_sc_hd__decap_12
XTAP_114 vssd1 vccd1 sky130_fd_sc_hd__tapvpwrvgnd_1
XTAP_103 vssd1 vccd1 sky130_fd_sc_hd__tapvpwrvgnd_1
XFILLER_39_225 vssd1 vssd1 vccd1 vccd1 sky130_fd_sc_hd__decap_12
XTAP_125 vssd1 vccd1 sky130_fd_sc_hd__tapvpwrvgnd_1
XTAP_136 vssd1 vccd1 sky130_fd_sc_hd__tapvpwrvgnd_1
XTAP_147 vssd1 vccd1 sky130_fd_sc_hd__tapvpwrvgnd_1
XANTENNA__1136__B1 _1397_/Q vssd1 vssd1 vccd1 vccd1 sky130_fd_sc_hd__diode_2
XTAP_158 vssd1 vccd1 sky130_fd_sc_hd__tapvpwrvgnd_1
XTAP_169 vssd1 vccd1 sky130_fd_sc_hd__tapvpwrvgnd_1
XFILLER_26_55 vssd1 vssd1 vccd1 vccd1 sky130_fd_sc_hd__decap_12
XFILLER_42_87 vssd1 vssd1 vccd1 vccd1 sky130_fd_sc_hd__decap_8
XFILLER_9_107 vssd1 vssd1 vccd1 vccd1 sky130_fd_sc_hd__fill_2
XFILLER_9_118 vssd1 vssd1 vccd1 vccd1 sky130_fd_sc_hd__fill_1
XFILLER_13_103 vssd1 vssd1 vccd1 vccd1 sky130_fd_sc_hd__decap_8
XFILLER_13_169 vssd1 vssd1 vccd1 vccd1 sky130_fd_sc_hd__decap_6
XFILLER_3_15 vssd1 vssd1 vccd1 vccd1 sky130_fd_sc_hd__decap_12
X_0982_ _0982_/A vssd1 vssd1 vccd1 vccd1 _1308_/D sky130_fd_sc_hd__buf_1
XFILLER_8_184 vssd1 vssd1 vccd1 vccd1 sky130_fd_sc_hd__decap_12
XFILLER_42_209 vssd1 vssd1 vccd1 vccd1 sky130_fd_sc_hd__decap_12
X_1396_ _1396_/CLK _1396_/D vssd1 vssd1 vccd1 vccd1 _1396_/Q sky130_fd_sc_hd__dfxtp_2
XFILLER_18_206 vssd1 vssd1 vccd1 vccd1 sky130_fd_sc_hd__fill_1
XFILLER_37_76 vssd1 vssd1 vccd1 vccd1 sky130_fd_sc_hd__fill_1
XANTENNA__0929__A3 _1293_/S vssd1 vssd1 vccd1 vccd1 sky130_fd_sc_hd__diode_2
X_1181_ _1180_/X _1142_/X _1290_/S vssd1 vssd1 vccd1 vccd1 _1181_/X sky130_fd_sc_hd__mux2_1
X_1250_ _1249_/X _1110_/Y _1289_/S vssd1 vssd1 vccd1 vccd1 _1250_/X sky130_fd_sc_hd__mux2_1
X_0965_ _0957_/X _1188_/X _0970_/C vssd1 vssd1 vccd1 vccd1 _0966_/A sky130_fd_sc_hd__and3b_2
X_0896_ _0891_/X _1172_/X vssd1 vssd1 vccd1 vccd1 _0897_/A sky130_fd_sc_hd__and2b_2
X_1379_ _1380_/CLK _1379_/D vssd1 vssd1 vccd1 vccd1 slave_data_rdata_o[15] sky130_fd_sc_hd__dfxtp_2
XFILLER_23_45 vssd1 vssd1 vccd1 vccd1 sky130_fd_sc_hd__decap_8
XFILLER_0_27 vssd1 vssd1 vccd1 vccd1 sky130_fd_sc_hd__fill_1
X_0750_ _1395_/Q vssd1 vssd1 vccd1 vccd1 _0750_/Y sky130_fd_sc_hd__inv_2
XANTENNA__0783__A1 slave_data_rdata_o[18] vssd1 vssd1 vccd1 vccd1 sky130_fd_sc_hd__diode_2
X_0681_ data_req_i _1331_/Q _0678_/X _1416_/Q _0674_/X vssd1 vssd1 vccd1 vccd1 _1416_/D
+ sky130_fd_sc_hd__o221a_2
X_1302_ _1388_/CLK _1302_/D vssd1 vssd1 vccd1 vccd1 _1302_/Q sky130_fd_sc_hd__dfxtp_2
X_1233_ _1398_/Q _1420_/Q _1269_/S vssd1 vssd1 vccd1 vccd1 _1233_/X sky130_fd_sc_hd__mux2_1
XFILLER_29_3 vssd1 vssd1 vccd1 vccd1 sky130_fd_sc_hd__decap_12
XANTENNA__0826__A reset vssd1 vssd1 vccd1 vccd1 sky130_fd_sc_hd__diode_2
X_1164_ vssd1 vssd1 vccd1 vccd1 _1164_/HI slave_data_rdata_o[28] sky130_fd_sc_hd__conb_1
X_1095_ _1407_/Q _1094_/B _1094_/Y vssd1 vssd1 vccd1 vccd1 _1099_/B sky130_fd_sc_hd__a21oi_2
X_0948_ _0947_/X _1245_/X _0950_/C vssd1 vssd1 vccd1 vccd1 _0949_/A sky130_fd_sc_hd__and3b_2
X_0879_ _0919_/A _1264_/X vssd1 vssd1 vccd1 vccd1 _0880_/A sky130_fd_sc_hd__and2b_2
XFILLER_18_78 vssd1 vssd1 vccd1 vccd1 sky130_fd_sc_hd__decap_3
XFILLER_11_245 vssd1 vssd1 vccd1 vccd1 sky130_fd_sc_hd__fill_2
XANTENNA__1241__S _1292_/S vssd1 vssd1 vccd1 vccd1 sky130_fd_sc_hd__diode_2
X_0802_ slave_data_we_i _0802_/B vssd1 vssd1 vccd1 vccd1 _0812_/A sky130_fd_sc_hd__or2_2
X_0733_ _1333_/Q _1332_/Q vssd1 vssd1 vccd1 vccd1 _1133_/B sky130_fd_sc_hd__or2_2
X_0664_ _1425_/Q _0657_/X _1362_/Q _0988_/B _0662_/X vssd1 vssd1 vccd1 vccd1 _1425_/D
+ sky130_fd_sc_hd__o221a_2
X_1216_ _1013_/B _1014_/X _1291_/S vssd1 vssd1 vccd1 vccd1 _1216_/X sky130_fd_sc_hd__mux2_1
XFILLER_37_120 vssd1 vssd1 vccd1 vccd1 sky130_fd_sc_hd__decap_12
X_1078_ _1076_/Y _1068_/Y _1084_/B vssd1 vssd1 vccd1 vccd1 _1078_/Y sky130_fd_sc_hd__o21ai_2
XFILLER_37_164 vssd1 vssd1 vccd1 vccd1 sky130_fd_sc_hd__fill_2
X_1147_ _1343_/Q _0739_/B _0740_/B vssd1 vssd1 vccd1 vccd1 _1147_/X sky130_fd_sc_hd__a21bo_2
XANTENNA__0995__A1 _1289_/S vssd1 vssd1 vccd1 vccd1 sky130_fd_sc_hd__diode_2
XFILLER_6_48 vssd1 vssd1 vccd1 vccd1 sky130_fd_sc_hd__decap_3
XTAP_307 vssd1 vccd1 sky130_fd_sc_hd__tapvpwrvgnd_1
XANTENNA__1236__S _1289_/S vssd1 vssd1 vccd1 vccd1 sky130_fd_sc_hd__diode_2
XFILLER_34_112 vssd1 vssd1 vccd1 vccd1 sky130_fd_sc_hd__decap_12
X_1001_ _1298_/Q _0999_/X _1258_/X _0996_/X vssd1 vssd1 vccd1 vccd1 _1298_/D sky130_fd_sc_hd__o22a_2
XFILLER_19_197 vssd1 vssd1 vccd1 vccd1 sky130_fd_sc_hd__decap_12
X_0647_ _1310_/Q _0647_/B vssd1 vssd1 vccd1 vccd1 _0648_/B sky130_fd_sc_hd__or2_2
X_0716_ _1401_/Q _0710_/X slave_data_wdata_i[4] _0711_/X _0713_/X vssd1 vssd1 vccd1
+ vccd1 _1401_/D sky130_fd_sc_hd__o221a_2
XFILLER_40_104 vssd1 vssd1 vccd1 vccd1 sky130_fd_sc_hd__fill_1
XFILLER_25_134 vssd1 vssd1 vccd1 vccd1 sky130_fd_sc_hd__decap_6
XFILLER_25_167 vssd1 vssd1 vccd1 vccd1 sky130_fd_sc_hd__fill_1
XTAP_126 vssd1 vccd1 sky130_fd_sc_hd__tapvpwrvgnd_1
XTAP_115 vssd1 vccd1 sky130_fd_sc_hd__tapvpwrvgnd_1
XTAP_104 vssd1 vccd1 sky130_fd_sc_hd__tapvpwrvgnd_1
XTAP_137 vssd1 vccd1 sky130_fd_sc_hd__tapvpwrvgnd_1
XTAP_148 vssd1 vccd1 sky130_fd_sc_hd__tapvpwrvgnd_1
XFILLER_39_237 vssd1 vssd1 vccd1 vccd1 sky130_fd_sc_hd__decap_12
XFILLER_39_215 vssd1 vssd1 vccd1 vccd1 sky130_fd_sc_hd__decap_8
XFILLER_11_3 vssd1 vssd1 vccd1 vccd1 sky130_fd_sc_hd__decap_12
XTAP_159 vssd1 vccd1 sky130_fd_sc_hd__tapvpwrvgnd_1
XFILLER_13_115 vssd1 vssd1 vccd1 vccd1 sky130_fd_sc_hd__decap_12
XFILLER_26_67 vssd1 vssd1 vccd1 vccd1 sky130_fd_sc_hd__decap_8
XFILLER_3_27 vssd1 vssd1 vccd1 vccd1 sky130_fd_sc_hd__decap_12
XFILLER_44_251 vssd1 vssd1 vccd1 vccd1 sky130_fd_sc_hd__fill_1
X_0981_ _0937_/A _1192_/X _0984_/D vssd1 vssd1 vccd1 vccd1 _0982_/A sky130_fd_sc_hd__and3b_2
XFILLER_8_141 vssd1 vssd1 vccd1 vccd1 sky130_fd_sc_hd__decap_6
X_1395_ _1425_/CLK _1395_/D vssd1 vssd1 vccd1 vccd1 _1395_/Q sky130_fd_sc_hd__dfxtp_2
XFILLER_12_36 vssd1 vssd1 vccd1 vccd1 sky130_fd_sc_hd__decap_12
XFILLER_37_55 vssd1 vssd1 vccd1 vccd1 sky130_fd_sc_hd__fill_1
XFILLER_41_221 vssd1 vssd1 vccd1 vccd1 sky130_fd_sc_hd__decap_3
XANTENNA__1244__S _1292_/S vssd1 vssd1 vccd1 vccd1 sky130_fd_sc_hd__diode_2
X_1180_ _1179_/X _1050_/B _1289_/S vssd1 vssd1 vccd1 vccd1 _1180_/X sky130_fd_sc_hd__mux2_1
X_0964_ _0964_/A vssd1 vssd1 vccd1 vccd1 _1316_/D sky130_fd_sc_hd__buf_1
X_0895_ _0895_/A vssd1 vssd1 vccd1 vccd1 _1342_/D sky130_fd_sc_hd__buf_1
X_1378_ _1380_/CLK _1378_/D vssd1 vssd1 vccd1 vccd1 slave_data_rdata_o[14] sky130_fd_sc_hd__dfxtp_2
XFILLER_23_57 vssd1 vssd1 vccd1 vccd1 sky130_fd_sc_hd__fill_1
XFILLER_14_243 vssd1 vssd1 vccd1 vccd1 sky130_fd_sc_hd__decap_8
X_0680_ data_req_i _1396_/Q _0678_/X _1417_/Q _0674_/X vssd1 vssd1 vccd1 vccd1 _1417_/D
+ sky130_fd_sc_hd__o221a_2
XANTENNA__1239__S _1293_/S vssd1 vssd1 vccd1 vccd1 sky130_fd_sc_hd__diode_2
X_1301_ _1394_/CLK _1301_/D vssd1 vssd1 vccd1 vccd1 _1301_/Q sky130_fd_sc_hd__dfxtp_2
X_1232_ _1231_/X _1135_/X _1290_/S vssd1 vssd1 vccd1 vccd1 _1232_/X sky130_fd_sc_hd__mux2_1
X_1163_ vssd1 vssd1 vccd1 vccd1 _1163_/HI slave_data_rdata_o[27] sky130_fd_sc_hd__conb_1
X_1094_ _1407_/Q _1094_/B vssd1 vssd1 vccd1 vccd1 _1094_/Y sky130_fd_sc_hd__nor2_2
X_0947_ _0967_/A vssd1 vssd1 vccd1 vccd1 _0947_/X sky130_fd_sc_hd__buf_1
X_0878_ _0878_/A vssd1 vssd1 vccd1 vccd1 _1349_/D sky130_fd_sc_hd__buf_1
XFILLER_11_268 vssd1 vssd1 vccd1 vccd1 sky130_fd_sc_hd__fill_1
X_0801_ slave_data_rdata_o[8] _0784_/A _1405_/Q _0785_/A _0800_/X vssd1 vssd1 vccd1
+ vccd1 _1372_/D sky130_fd_sc_hd__o221a_2
XFILLER_41_3 vssd1 vssd1 vccd1 vccd1 sky130_fd_sc_hd__decap_12
X_0732_ _1339_/Q _1336_/Q vssd1 vssd1 vccd1 vccd1 _0735_/C sky130_fd_sc_hd__or2_2
X_0663_ _1426_/Q _0657_/X _1363_/Q _0988_/B _0662_/X vssd1 vssd1 vccd1 vccd1 _1426_/D
+ sky130_fd_sc_hd__o221a_2
XFILLER_37_132 vssd1 vssd1 vccd1 vccd1 sky130_fd_sc_hd__decap_3
X_1215_ _1327_/Q _1008_/X _1291_/S vssd1 vssd1 vccd1 vccd1 _1215_/X sky130_fd_sc_hd__mux2_1
X_1146_ _1342_/Q _0738_/B _0739_/B vssd1 vssd1 vccd1 vccd1 _1146_/X sky130_fd_sc_hd__a21bo_2
X_1077_ _1318_/Q _1317_/Q _1077_/C vssd1 vssd1 vccd1 vccd1 _1084_/B sky130_fd_sc_hd__or3_2
XANTENNA__0692__A1 slave_data_we_i vssd1 vssd1 vccd1 vccd1 sky130_fd_sc_hd__diode_2
XFILLER_4_209 vssd1 vssd1 vccd1 vccd1 sky130_fd_sc_hd__decap_12
X_1000_ _1299_/Q _0999_/X _1255_/X _0996_/X vssd1 vssd1 vccd1 vccd1 _1299_/D sky130_fd_sc_hd__o22a_2
XANTENNA__1252__S _1291_/S vssd1 vssd1 vccd1 vccd1 sky130_fd_sc_hd__diode_2
XFILLER_34_157 vssd1 vssd1 vccd1 vccd1 sky130_fd_sc_hd__decap_12