* NGSPICE file created from peripheral.ext - technology: sky130A

* Black-box entry subcircuit for sky130_fd_sc_hd__tapvpwrvgnd_1 abstract view
.subckt sky130_fd_sc_hd__tapvpwrvgnd_1 VGND VPWR
.ends

* Black-box entry subcircuit for sky130_fd_sc_hd__fill_1 abstract view
.subckt sky130_fd_sc_hd__fill_1 VGND VNB VPB VPWR
.ends

* Black-box entry subcircuit for sky130_fd_sc_hd__decap_12 abstract view
.subckt sky130_fd_sc_hd__decap_12 VGND VNB VPB VPWR
.ends

* Black-box entry subcircuit for sky130_fd_sc_hd__decap_3 abstract view
.subckt sky130_fd_sc_hd__decap_3 VGND VNB VPB VPWR
.ends

* Black-box entry subcircuit for sky130_fd_sc_hd__decap_4 abstract view
.subckt sky130_fd_sc_hd__decap_4 VGND VNB VPB VPWR
.ends

* Black-box entry subcircuit for sky130_fd_sc_hd__mux2_1 abstract view
.subckt sky130_fd_sc_hd__mux2_1 A0 A1 S VGND VNB VPB VPWR X
.ends

* Black-box entry subcircuit for sky130_fd_sc_hd__buf_1 abstract view
.subckt sky130_fd_sc_hd__buf_1 A VGND VNB VPB VPWR X
.ends

* Black-box entry subcircuit for sky130_fd_sc_hd__diode_2 abstract view
.subckt sky130_fd_sc_hd__diode_2 DIODE VGND VNB VPB VPWR
.ends

* Black-box entry subcircuit for sky130_fd_sc_hd__dfxtp_2 abstract view
.subckt sky130_fd_sc_hd__dfxtp_2 CLK D VGND VNB VPB VPWR Q
.ends

* Black-box entry subcircuit for sky130_fd_sc_hd__fill_2 abstract view
.subckt sky130_fd_sc_hd__fill_2 VGND VNB VPB VPWR
.ends

* Black-box entry subcircuit for sky130_fd_sc_hd__decap_8 abstract view
.subckt sky130_fd_sc_hd__decap_8 VGND VNB VPB VPWR
.ends

* Black-box entry subcircuit for sky130_fd_sc_hd__or2_2 abstract view
.subckt sky130_fd_sc_hd__or2_2 A B VGND VNB VPB VPWR X
.ends

* Black-box entry subcircuit for sky130_fd_sc_hd__a21bo_2 abstract view
.subckt sky130_fd_sc_hd__a21bo_2 A1 A2 B1_N VGND VNB VPB VPWR X
.ends

* Black-box entry subcircuit for sky130_fd_sc_hd__and2_2 abstract view
.subckt sky130_fd_sc_hd__and2_2 A B VGND VNB VPB VPWR X
.ends

* Black-box entry subcircuit for sky130_fd_sc_hd__clkbuf_2 abstract view
.subckt sky130_fd_sc_hd__clkbuf_2 A VGND VNB VPB VPWR X
.ends

* Black-box entry subcircuit for sky130_fd_sc_hd__nor2_2 abstract view
.subckt sky130_fd_sc_hd__nor2_2 A B VGND VNB VPB VPWR Y
.ends

* Black-box entry subcircuit for sky130_fd_sc_hd__decap_6 abstract view
.subckt sky130_fd_sc_hd__decap_6 VGND VNB VPB VPWR
.ends

* Black-box entry subcircuit for sky130_fd_sc_hd__or3_2 abstract view
.subckt sky130_fd_sc_hd__or3_2 A B C VGND VNB VPB VPWR X
.ends

* Black-box entry subcircuit for sky130_fd_sc_hd__o221a_2 abstract view
.subckt sky130_fd_sc_hd__o221a_2 A1 A2 B1 B2 C1 VGND VNB VPB VPWR X
.ends

* Black-box entry subcircuit for sky130_fd_sc_hd__o32a_2 abstract view
.subckt sky130_fd_sc_hd__o32a_2 A1 A2 A3 B1 B2 VGND VNB VPB VPWR X
.ends

* Black-box entry subcircuit for sky130_fd_sc_hd__inv_2 abstract view
.subckt sky130_fd_sc_hd__inv_2 A VGND VNB VPB VPWR Y
.ends

* Black-box entry subcircuit for sky130_fd_sc_hd__o21ai_2 abstract view
.subckt sky130_fd_sc_hd__o21ai_2 A1 A2 B1 VGND VNB VPB VPWR Y
.ends

* Black-box entry subcircuit for sky130_fd_sc_hd__and3b_2 abstract view
.subckt sky130_fd_sc_hd__and3b_2 A_N B C VGND VNB VPB VPWR X
.ends

* Black-box entry subcircuit for sky130_fd_sc_hd__or4_2 abstract view
.subckt sky130_fd_sc_hd__or4_2 A B C D VGND VNB VPB VPWR X
.ends

* Black-box entry subcircuit for sky130_fd_sc_hd__and2b_2 abstract view
.subckt sky130_fd_sc_hd__and2b_2 A_N B VGND VNB VPB VPWR X
.ends

* Black-box entry subcircuit for sky130_fd_sc_hd__nand2_2 abstract view
.subckt sky130_fd_sc_hd__nand2_2 A B VGND VNB VPB VPWR Y
.ends

* Black-box entry subcircuit for sky130_fd_sc_hd__o311a_2 abstract view
.subckt sky130_fd_sc_hd__o311a_2 A1 A2 A3 B1 C1 VGND VNB VPB VPWR X
.ends

* Black-box entry subcircuit for sky130_fd_sc_hd__a21o_2 abstract view
.subckt sky130_fd_sc_hd__a21o_2 A1 A2 B1 VGND VNB VPB VPWR X
.ends

* Black-box entry subcircuit for sky130_fd_sc_hd__o22a_2 abstract view
.subckt sky130_fd_sc_hd__o22a_2 A1 A2 B1 B2 VGND VNB VPB VPWR X
.ends

* Black-box entry subcircuit for sky130_fd_sc_hd__a21oi_2 abstract view
.subckt sky130_fd_sc_hd__a21oi_2 A1 A2 B1 VGND VNB VPB VPWR Y
.ends

* Black-box entry subcircuit for sky130_fd_sc_hd__o211a_2 abstract view
.subckt sky130_fd_sc_hd__o211a_2 A1 A2 B1 C1 VGND VNB VPB VPWR X
.ends

* Black-box entry subcircuit for sky130_fd_sc_hd__clkbuf_16 abstract view
.subckt sky130_fd_sc_hd__clkbuf_16 A VGND VNB VPB VPWR X
.ends

* Black-box entry subcircuit for sky130_fd_sc_hd__a22o_2 abstract view
.subckt sky130_fd_sc_hd__a22o_2 A1 A2 B1 B2 VGND VNB VPB VPWR X
.ends

* Black-box entry subcircuit for sky130_fd_sc_hd__conb_1 abstract view
.subckt sky130_fd_sc_hd__conb_1 VGND VNB VPB VPWR HI LO
.ends

* Black-box entry subcircuit for sky130_fd_sc_hd__and3_2 abstract view
.subckt sky130_fd_sc_hd__and3_2 A B C VGND VNB VPB VPWR X
.ends

* Black-box entry subcircuit for sky130_fd_sc_hd__a31o_2 abstract view
.subckt sky130_fd_sc_hd__a31o_2 A1 A2 A3 B1 VGND VNB VPB VPWR X
.ends

* Black-box entry subcircuit for sky130_fd_sc_hd__a21boi_2 abstract view
.subckt sky130_fd_sc_hd__a21boi_2 A1 A2 B1_N VGND VNB VPB VPWR Y
.ends

* Black-box entry subcircuit for sky130_fd_sc_hd__and4b_2 abstract view
.subckt sky130_fd_sc_hd__and4b_2 A_N B C D VGND VNB VPB VPWR X
.ends

* Black-box entry subcircuit for sky130_fd_sc_hd__o21a_2 abstract view
.subckt sky130_fd_sc_hd__o21a_2 A1 A2 B1 VGND VNB VPB VPWR X
.ends

* Black-box entry subcircuit for sky130_fd_sc_hd__nor3_2 abstract view
.subckt sky130_fd_sc_hd__nor3_2 A B C VGND VNB VPB VPWR Y
.ends

* Black-box entry subcircuit for sky130_fd_sc_hd__buf_2 abstract view
.subckt sky130_fd_sc_hd__buf_2 A VGND VNB VPB VPWR X
.ends

* Black-box entry subcircuit for sky130_fd_sc_hd__o2111a_2 abstract view
.subckt sky130_fd_sc_hd__o2111a_2 A1 A2 B1 C1 D1 VGND VNB VPB VPWR X
.ends

.subckt peripheral clk data_req_i reset rxd_uart slave_data_addr_i[0] slave_data_addr_i[1]
+ slave_data_addr_i[2] slave_data_addr_i[3] slave_data_addr_i[4] slave_data_addr_i[5]
+ slave_data_addr_i[6] slave_data_addr_i[7] slave_data_addr_i[8] slave_data_addr_i[9]
+ slave_data_be_i[0] slave_data_be_i[1] slave_data_be_i[2] slave_data_be_i[3] slave_data_gnt_o
+ slave_data_rdata_o[0] slave_data_rdata_o[10] slave_data_rdata_o[11] slave_data_rdata_o[12]
+ slave_data_rdata_o[13] slave_data_rdata_o[14] slave_data_rdata_o[15] slave_data_rdata_o[16]
+ slave_data_rdata_o[17] slave_data_rdata_o[18] slave_data_rdata_o[19] slave_data_rdata_o[1]
+ slave_data_rdata_o[20] slave_data_rdata_o[21] slave_data_rdata_o[22] slave_data_rdata_o[23]
+ slave_data_rdata_o[24] slave_data_rdata_o[25] slave_data_rdata_o[26] slave_data_rdata_o[27]
+ slave_data_rdata_o[28] slave_data_rdata_o[29] slave_data_rdata_o[2] slave_data_rdata_o[30]
+ slave_data_rdata_o[31] slave_data_rdata_o[3] slave_data_rdata_o[4] slave_data_rdata_o[5]
+ slave_data_rdata_o[6] slave_data_rdata_o[7] slave_data_rdata_o[8] slave_data_rdata_o[9]
+ slave_data_rvalid_o slave_data_wdata_i[0] slave_data_wdata_i[10] slave_data_wdata_i[11]
+ slave_data_wdata_i[12] slave_data_wdata_i[13] slave_data_wdata_i[14] slave_data_wdata_i[15]
+ slave_data_wdata_i[16] slave_data_wdata_i[17] slave_data_wdata_i[18] slave_data_wdata_i[19]
+ slave_data_wdata_i[1] slave_data_wdata_i[20] slave_data_wdata_i[21] slave_data_wdata_i[22]
+ slave_data_wdata_i[23] slave_data_wdata_i[24] slave_data_wdata_i[25] slave_data_wdata_i[26]
+ slave_data_wdata_i[27] slave_data_wdata_i[28] slave_data_wdata_i[29] slave_data_wdata_i[2]
+ slave_data_wdata_i[30] slave_data_wdata_i[31] slave_data_wdata_i[3] slave_data_wdata_i[4]
+ slave_data_wdata_i[5] slave_data_wdata_i[6] slave_data_wdata_i[7] slave_data_wdata_i[8]
+ slave_data_wdata_i[9] slave_data_we_i txd_uart vccd1 vssd1
XTAP_177 vssd1 vccd1 sky130_fd_sc_hd__tapvpwrvgnd_1
XTAP_188 vssd1 vccd1 sky130_fd_sc_hd__tapvpwrvgnd_1
XTAP_199 vssd1 vccd1 sky130_fd_sc_hd__tapvpwrvgnd_1
XFILLER_45_269 vssd1 vssd1 vccd1 vccd1 sky130_fd_sc_hd__fill_1
XFILLER_45_225 vssd1 vssd1 vccd1 vccd1 sky130_fd_sc_hd__decap_12
XFILLER_26_74 vssd1 vssd1 vccd1 vccd1 sky130_fd_sc_hd__decap_3
XFILLER_36_269 vssd1 vssd1 vccd1 vccd1 sky130_fd_sc_hd__fill_1
XFILLER_36_247 vssd1 vssd1 vccd1 vccd1 sky130_fd_sc_hd__decap_4
XFILLER_36_214 vssd1 vssd1 vccd1 vccd1 sky130_fd_sc_hd__decap_12
X_1270_ _1322_/S _0756_/B _1323_/S vssd1 vssd1 vccd1 vccd1 _1270_/X sky130_fd_sc_hd__mux2_1
XFILLER_3_67 vssd1 vssd1 vccd1 vccd1 sky130_fd_sc_hd__fill_1
X_0985_ _0985_/A vssd1 vssd1 vccd1 vccd1 _0993_/C sky130_fd_sc_hd__buf_1
XANTENNA__0962__A3 _1327_/S vssd1 vssd1 vccd1 vccd1 sky130_fd_sc_hd__diode_2
X_1399_ _1460_/CLK _1399_/D vssd1 vssd1 vccd1 vccd1 slave_data_rdata_o[1] sky130_fd_sc_hd__dfxtp_2
XFILLER_42_239 vssd1 vssd1 vccd1 vccd1 sky130_fd_sc_hd__decap_12
XFILLER_27_214 vssd1 vssd1 vccd1 vccd1 sky130_fd_sc_hd__decap_4
XFILLER_37_73 vssd1 vssd1 vccd1 vccd1 sky130_fd_sc_hd__fill_1
XFILLER_37_51 vssd1 vssd1 vccd1 vccd1 sky130_fd_sc_hd__fill_2
XFILLER_41_261 vssd1 vssd1 vccd1 vccd1 sky130_fd_sc_hd__decap_8
XFILLER_18_269 vssd1 vssd1 vccd1 vccd1 sky130_fd_sc_hd__fill_1
X_0770_ _1384_/Q _0770_/B vssd1 vssd1 vccd1 vccd1 _0771_/A sky130_fd_sc_hd__or2_2
X_1253_ _1252_/X _1083_/X _1327_/S vssd1 vssd1 vccd1 vccd1 _1253_/X sky130_fd_sc_hd__mux2_1
X_1322_ _1130_/Y _1441_/Q _1322_/S vssd1 vssd1 vccd1 vccd1 _1322_/X sky130_fd_sc_hd__mux2_1
X_1184_ _1380_/Q _0767_/B _0768_/B vssd1 vssd1 vccd1 vccd1 _1184_/X sky130_fd_sc_hd__a21bo_2
X_0968_ _0968_/A _0968_/B vssd1 vssd1 vccd1 vccd1 _1000_/A sky130_fd_sc_hd__and2_2
Xclkbuf_4_12_0_clk clkbuf_3_6_0_clk/X vssd1 vssd1 vccd1 vccd1 _1448_/CLK sky130_fd_sc_hd__clkbuf_2
X_0899_ _0958_/A _0899_/B vssd1 vssd1 vccd1 vccd1 _1387_/D sky130_fd_sc_hd__nor2_2
XFILLER_15_217 vssd1 vssd1 vccd1 vccd1 sky130_fd_sc_hd__fill_1
XFILLER_23_31 vssd1 vssd1 vccd1 vccd1 sky130_fd_sc_hd__fill_1
XFILLER_0_57 vssd1 vssd1 vccd1 vccd1 sky130_fd_sc_hd__decap_12
XFILLER_9_44 vssd1 vssd1 vccd1 vccd1 sky130_fd_sc_hd__decap_8
XFILLER_9_55 vssd1 vssd1 vccd1 vccd1 sky130_fd_sc_hd__fill_1
X_0822_ _0836_/A vssd1 vssd1 vccd1 vccd1 _0822_/X sky130_fd_sc_hd__buf_1
X_0753_ _0753_/A vssd1 vssd1 vccd1 vccd1 _1323_/S sky130_fd_sc_hd__buf_1
Xclkbuf_3_1_0_clk clkbuf_0_clk/X vssd1 vssd1 vccd1 vccd1 clkbuf_4_3_0_clk/A sky130_fd_sc_hd__clkbuf_2
X_0684_ _0684_/A vssd1 vssd1 vccd1 vccd1 _0684_/X sky130_fd_sc_hd__buf_1
X_1236_ _1235_/X _1077_/B _1326_/S vssd1 vssd1 vccd1 vccd1 _1236_/X sky130_fd_sc_hd__mux2_1
X_1305_ _1304_/X _1158_/B _1323_/S vssd1 vssd1 vccd1 vccd1 _1305_/X sky130_fd_sc_hd__mux2_1
X_1167_ _1368_/Q _1167_/B vssd1 vssd1 vccd1 vccd1 _1167_/X sky130_fd_sc_hd__or2_2
X_1098_ _1098_/A vssd1 vssd1 vccd1 vccd1 _1098_/X sky130_fd_sc_hd__buf_1
XFILLER_20_253 vssd1 vssd1 vccd1 vccd1 sky130_fd_sc_hd__decap_12
XANTENNA__0711__A slave_data_we_i vssd1 vssd1 vccd1 vccd1 sky130_fd_sc_hd__diode_2
XFILLER_34_85 vssd1 vssd1 vccd1 vccd1 sky130_fd_sc_hd__decap_6
XFILLER_11_253 vssd1 vssd1 vccd1 vccd1 sky130_fd_sc_hd__decap_12
XFILLER_7_268 vssd1 vssd1 vccd1 vccd1 sky130_fd_sc_hd__fill_2
X_1021_ _1022_/A _1021_/B vssd1 vssd1 vccd1 vccd1 _1339_/D sky130_fd_sc_hd__nor2_2
X_0805_ _0812_/A vssd1 vssd1 vccd1 vccd1 _0805_/X sky130_fd_sc_hd__buf_1
X_0667_ _1347_/Q _1346_/Q _1068_/B vssd1 vssd1 vccd1 vccd1 _1082_/B sky130_fd_sc_hd__or3_2
X_0736_ _1438_/Q _0734_/X slave_data_wdata_i[7] _0735_/X _0728_/X vssd1 vssd1 vccd1
+ vccd1 _1438_/D sky130_fd_sc_hd__o221a_2
X_1219_ _1218_/X _1157_/X _1327_/S vssd1 vssd1 vccd1 vccd1 _1219_/X sky130_fd_sc_hd__mux2_1
XANTENNA__1301__S _1327_/S vssd1 vssd1 vccd1 vccd1 sky130_fd_sc_hd__diode_2
XFILLER_29_41 vssd1 vssd1 vccd1 vccd1 sky130_fd_sc_hd__fill_1
XFILLER_43_186 vssd1 vssd1 vccd1 vccd1 sky130_fd_sc_hd__decap_12
XANTENNA__1211__S _1323_/S vssd1 vssd1 vccd1 vccd1 sky130_fd_sc_hd__diode_2
XTAP_304 vssd1 vccd1 sky130_fd_sc_hd__tapvpwrvgnd_1
XFILLER_13_3 vssd1 vssd1 vccd1 vccd1 sky130_fd_sc_hd__decap_8
X_1004_ _1004_/A vssd1 vssd1 vccd1 vccd1 _1347_/D sky130_fd_sc_hd__buf_1
X_0719_ _0737_/A vssd1 vssd1 vccd1 vccd1 _0719_/X sky130_fd_sc_hd__buf_1
XFILLER_25_120 vssd1 vssd1 vccd1 vccd1 sky130_fd_sc_hd__fill_1
XFILLER_40_134 vssd1 vssd1 vccd1 vccd1 sky130_fd_sc_hd__fill_1
XFILLER_25_197 vssd1 vssd1 vccd1 vccd1 sky130_fd_sc_hd__decap_3
XANTENNA__1206__S _1324_/S vssd1 vssd1 vccd1 vccd1 sky130_fd_sc_hd__diode_2
XFILLER_16_131 vssd1 vssd1 vccd1 vccd1 sky130_fd_sc_hd__decap_8
XFILLER_16_197 vssd1 vssd1 vccd1 vccd1 sky130_fd_sc_hd__decap_4
XTAP_123 vssd1 vccd1 sky130_fd_sc_hd__tapvpwrvgnd_1
XTAP_112 vssd1 vccd1 sky130_fd_sc_hd__tapvpwrvgnd_1
XTAP_101 vssd1 vccd1 sky130_fd_sc_hd__tapvpwrvgnd_1
XTAP_134 vssd1 vccd1 sky130_fd_sc_hd__tapvpwrvgnd_1
XTAP_145 vssd1 vccd1 sky130_fd_sc_hd__tapvpwrvgnd_1
XTAP_156 vssd1 vccd1 sky130_fd_sc_hd__tapvpwrvgnd_1
XTAP_167 vssd1 vccd1 sky130_fd_sc_hd__tapvpwrvgnd_1
XTAP_178 vssd1 vccd1 sky130_fd_sc_hd__tapvpwrvgnd_1
XTAP_189 vssd1 vccd1 sky130_fd_sc_hd__tapvpwrvgnd_1
XANTENNA__0965__A1 _1327_/S vssd1 vssd1 vccd1 vccd1 sky130_fd_sc_hd__diode_2
XFILLER_45_237 vssd1 vssd1 vccd1 vccd1 sky130_fd_sc_hd__decap_12
XFILLER_42_41 vssd1 vssd1 vccd1 vccd1 sky130_fd_sc_hd__decap_4
XFILLER_3_57 vssd1 vssd1 vccd1 vccd1 sky130_fd_sc_hd__fill_1
XFILLER_36_226 vssd1 vssd1 vccd1 vccd1 sky130_fd_sc_hd__fill_2
X_0984_ _0984_/A vssd1 vssd1 vccd1 vccd1 _1355_/D sky130_fd_sc_hd__buf_1
X_1398_ _1460_/CLK _1398_/D vssd1 vssd1 vccd1 vccd1 slave_data_rdata_o[0] sky130_fd_sc_hd__dfxtp_2
XFILLER_6_108 vssd1 vssd1 vccd1 vccd1 sky130_fd_sc_hd__decap_3
XFILLER_10_159 vssd1 vssd1 vccd1 vccd1 sky130_fd_sc_hd__fill_1
XFILLER_12_11 vssd1 vssd1 vccd1 vccd1 sky130_fd_sc_hd__decap_3
XFILLER_37_41 vssd1 vssd1 vccd1 vccd1 sky130_fd_sc_hd__decap_6
XFILLER_33_207 vssd1 vssd1 vccd1 vccd1 sky130_fd_sc_hd__decap_6
X_1321_ _1320_/X _1181_/X _1324_/S vssd1 vssd1 vccd1 vccd1 _1321_/X sky130_fd_sc_hd__mux2_1
X_1252_ _1251_/X _1088_/Y _1326_/S vssd1 vssd1 vccd1 vccd1 _1252_/X sky130_fd_sc_hd__mux2_1
X_1183_ _1379_/Q _0766_/B _0767_/B vssd1 vssd1 vccd1 vccd1 _1183_/X sky130_fd_sc_hd__a21bo_2
XFILLER_32_240 vssd1 vssd1 vccd1 vccd1 sky130_fd_sc_hd__decap_12
X_0967_ _1022_/A _0967_/B vssd1 vssd1 vccd1 vccd1 _1361_/D sky130_fd_sc_hd__nor2_2
X_0898_ _0891_/X _0897_/A _0893_/Y _0896_/Y _0897_/Y vssd1 vssd1 vccd1 vccd1 _0899_/B
+ sky130_fd_sc_hd__o32a_2
XANTENNA__0709__A slave_data_addr_i[1] vssd1 vssd1 vccd1 vccd1 sky130_fd_sc_hd__diode_2
XANTENNA__1304__S _1322_/S vssd1 vssd1 vccd1 vccd1 sky130_fd_sc_hd__diode_2
XFILLER_0_69 vssd1 vssd1 vccd1 vccd1 sky130_fd_sc_hd__decap_12
XANTENNA__1214__S _1323_/S vssd1 vssd1 vccd1 vccd1 sky130_fd_sc_hd__diode_2
X_0752_ _0756_/C vssd1 vssd1 vccd1 vccd1 _0753_/A sky130_fd_sc_hd__inv_2
X_0821_ slave_data_rdata_o[13] _0819_/X _1444_/Q _0820_/X _0815_/X vssd1 vssd1 vccd1
+ vccd1 _1411_/D sky130_fd_sc_hd__o221a_2
XFILLER_43_3 vssd1 vssd1 vccd1 vccd1 sky130_fd_sc_hd__decap_6
X_0683_ _1458_/Q _0675_/X _1395_/Q _1021_/B _0680_/X vssd1 vssd1 vccd1 vccd1 _1458_/D
+ sky130_fd_sc_hd__o221a_2
X_1166_ _1367_/Q _1366_/Q _1167_/B vssd1 vssd1 vccd1 vccd1 _1166_/X sky130_fd_sc_hd__a21bo_2
X_1235_ _1071_/B _1072_/X _1325_/S vssd1 vssd1 vccd1 vccd1 _1235_/X sky130_fd_sc_hd__mux2_1
X_1304_ _1158_/B _1445_/Q _1322_/S vssd1 vssd1 vccd1 vccd1 _1304_/X sky130_fd_sc_hd__mux2_1
X_1097_ _1126_/A _1097_/B vssd1 vssd1 vccd1 vccd1 _1098_/A sky130_fd_sc_hd__and2_2
XANTENNA__0711__B _1303_/S vssd1 vssd1 vccd1 vccd1 sky130_fd_sc_hd__diode_2
XFILLER_20_265 vssd1 vssd1 vccd1 vccd1 sky130_fd_sc_hd__decap_4
XFILLER_18_76 vssd1 vssd1 vccd1 vccd1 sky130_fd_sc_hd__fill_1
XFILLER_7_225 vssd1 vssd1 vccd1 vccd1 sky130_fd_sc_hd__decap_4
XFILLER_11_221 vssd1 vssd1 vccd1 vccd1 sky130_fd_sc_hd__decap_3
XFILLER_11_265 vssd1 vssd1 vccd1 vccd1 sky130_fd_sc_hd__decap_4
XANTENNA__1209__S _1324_/S vssd1 vssd1 vccd1 vccd1 sky130_fd_sc_hd__diode_2
Xclkbuf_4_11_0_clk clkbuf_3_5_0_clk/X vssd1 vssd1 vccd1 vccd1 _1451_/CLK sky130_fd_sc_hd__clkbuf_2
X_1020_ _1020_/A vssd1 vssd1 vccd1 vccd1 _1340_/D sky130_fd_sc_hd__buf_1
X_0735_ _0735_/A vssd1 vssd1 vccd1 vccd1 _0735_/X sky130_fd_sc_hd__buf_1
X_0804_ _0820_/A vssd1 vssd1 vccd1 vccd1 _0812_/A sky130_fd_sc_hd__buf_1
X_0666_ _1345_/Q _0666_/B vssd1 vssd1 vccd1 vccd1 _1068_/B sky130_fd_sc_hd__or2_2
XFILLER_37_140 vssd1 vssd1 vccd1 vccd1 sky130_fd_sc_hd__fill_1
X_1218_ _1217_/X _1162_/Y _1326_/S vssd1 vssd1 vccd1 vccd1 _1218_/X sky130_fd_sc_hd__mux2_1
X_1149_ _1147_/Y _1142_/Y _1154_/B vssd1 vssd1 vccd1 vccd1 _1152_/B sky130_fd_sc_hd__o21ai_2
XFILLER_4_217 vssd1 vssd1 vccd1 vccd1 sky130_fd_sc_hd__fill_1
XFILLER_45_85 vssd1 vssd1 vccd1 vccd1 sky130_fd_sc_hd__decap_8
XFILLER_45_41 vssd1 vssd1 vccd1 vccd1 sky130_fd_sc_hd__decap_12
XFILLER_43_198 vssd1 vssd1 vccd1 vccd1 sky130_fd_sc_hd__decap_12
Xclkbuf_3_0_0_clk clkbuf_0_clk/X vssd1 vssd1 vccd1 vccd1 clkbuf_4_1_0_clk/A sky130_fd_sc_hd__clkbuf_2
XTAP_305 vssd1 vccd1 sky130_fd_sc_hd__tapvpwrvgnd_1
X_1003_ _1000_/X _1327_/X _1003_/C vssd1 vssd1 vccd1 vccd1 _1004_/A sky130_fd_sc_hd__and3b_2
X_0718_ _1446_/Q _0715_/X slave_data_wdata_i[15] _0717_/X _0703_/X vssd1 vssd1 vccd1
+ vccd1 _1446_/D sky130_fd_sc_hd__o221a_2
XANTENNA__1312__S _1324_/S vssd1 vssd1 vccd1 vccd1 sky130_fd_sc_hd__diode_2
XFILLER_40_157 vssd1 vssd1 vccd1 vccd1 sky130_fd_sc_hd__decap_6
XFILLER_0_253 vssd1 vssd1 vccd1 vccd1 sky130_fd_sc_hd__decap_12
XANTENNA__1222__S _1327_/S vssd1 vssd1 vccd1 vccd1 sky130_fd_sc_hd__diode_2
XTAP_124 vssd1 vccd1 sky130_fd_sc_hd__tapvpwrvgnd_1
XTAP_113 vssd1 vccd1 sky130_fd_sc_hd__tapvpwrvgnd_1
XTAP_102 vssd1 vccd1 sky130_fd_sc_hd__tapvpwrvgnd_1
XTAP_135 vssd1 vccd1 sky130_fd_sc_hd__tapvpwrvgnd_1
XTAP_146 vssd1 vccd1 sky130_fd_sc_hd__tapvpwrvgnd_1
XTAP_157 vssd1 vccd1 sky130_fd_sc_hd__tapvpwrvgnd_1
XTAP_168 vssd1 vccd1 sky130_fd_sc_hd__tapvpwrvgnd_1
XTAP_179 vssd1 vccd1 sky130_fd_sc_hd__tapvpwrvgnd_1
XFILLER_22_124 vssd1 vssd1 vccd1 vccd1 sky130_fd_sc_hd__fill_1
XANTENNA__1307__S _1322_/S vssd1 vssd1 vccd1 vccd1 sky130_fd_sc_hd__diode_2
XFILLER_45_249 vssd1 vssd1 vccd1 vccd1 sky130_fd_sc_hd__decap_3
XANTENNA__1217__S _1325_/S vssd1 vssd1 vccd1 vccd1 sky130_fd_sc_hd__diode_2
XFILLER_8_161 vssd1 vssd1 vccd1 vccd1 sky130_fd_sc_hd__decap_8
X_0983_ _0980_/X _1273_/X _0983_/C vssd1 vssd1 vccd1 vccd1 _0984_/A sky130_fd_sc_hd__and3b_2
X_1397_ _1397_/CLK _1397_/D vssd1 vssd1 vccd1 vccd1 _1397_/Q sky130_fd_sc_hd__dfxtp_2
XFILLER_27_205 vssd1 vssd1 vccd1 vccd1 sky130_fd_sc_hd__decap_6
XFILLER_12_56 vssd1 vssd1 vccd1 vccd1 sky130_fd_sc_hd__decap_8
XFILLER_18_249 vssd1 vssd1 vccd1 vccd1 sky130_fd_sc_hd__decap_3
X_1320_ _1319_/X _1117_/Y _1323_/S vssd1 vssd1 vccd1 vccd1 _1320_/X sky130_fd_sc_hd__mux2_1
X_1182_ _1378_/Q _0765_/B _0766_/B vssd1 vssd1 vccd1 vccd1 _1182_/X sky130_fd_sc_hd__a21bo_2
X_1251_ _1084_/B _1085_/X _1325_/S vssd1 vssd1 vccd1 vccd1 _1251_/X sky130_fd_sc_hd__mux2_1
XFILLER_24_208 vssd1 vssd1 vccd1 vccd1 sky130_fd_sc_hd__fill_1
XFILLER_24_219 vssd1 vssd1 vccd1 vccd1 sky130_fd_sc_hd__fill_1
X_0897_ _0897_/A vssd1 vssd1 vccd1 vccd1 _0897_/Y sky130_fd_sc_hd__inv_2
X_0966_ _1249_/X _1326_/S _0960_/A _0661_/D _0961_/Y vssd1 vssd1 vccd1 vccd1 _0967_/B
+ sky130_fd_sc_hd__o32a_2
X_1449_ _1452_/CLK _1449_/D vssd1 vssd1 vccd1 vccd1 _1449_/Q sky130_fd_sc_hd__dfxtp_2
XANTENNA__0709__B slave_data_addr_i[0] vssd1 vssd1 vccd1 vccd1 sky130_fd_sc_hd__diode_2
XANTENNA__1320__S _1323_/S vssd1 vssd1 vccd1 vccd1 sky130_fd_sc_hd__diode_2
XFILLER_23_44 vssd1 vssd1 vccd1 vccd1 sky130_fd_sc_hd__decap_12
XFILLER_3_3 vssd1 vssd1 vccd1 vccd1 sky130_fd_sc_hd__decap_12
XANTENNA__0792__B1 slave_data_wdata_i[4] vssd1 vssd1 vccd1 vccd1 sky130_fd_sc_hd__diode_2
XFILLER_2_189 vssd1 vssd1 vccd1 vccd1 sky130_fd_sc_hd__decap_4
XFILLER_0_15 vssd1 vssd1 vccd1 vccd1 sky130_fd_sc_hd__decap_12
XANTENNA__1230__S _1325_/S vssd1 vssd1 vccd1 vccd1 sky130_fd_sc_hd__diode_2
X_0751_ _1388_/Q _1387_/Q _1386_/Q _1385_/Q vssd1 vssd1 vccd1 vccd1 _0756_/C sky130_fd_sc_hd__or4_2
X_0820_ _0820_/A vssd1 vssd1 vccd1 vccd1 _0820_/X sky130_fd_sc_hd__buf_1
XFILLER_36_3 vssd1 vssd1 vccd1 vccd1 sky130_fd_sc_hd__decap_6
X_0682_ _1459_/Q _0675_/X _1396_/Q _1021_/B _0680_/X vssd1 vssd1 vccd1 vccd1 _1459_/D
+ sky130_fd_sc_hd__o221a_2
X_1303_ _1431_/Q _1453_/Q _1303_/S vssd1 vssd1 vccd1 vccd1 _1303_/X sky130_fd_sc_hd__mux2_1
X_1165_ _1366_/Q vssd1 vssd1 vccd1 vccd1 _1165_/Y sky130_fd_sc_hd__inv_2
X_1096_ _1096_/A vssd1 vssd1 vccd1 vccd1 _1126_/A sky130_fd_sc_hd__buf_1
X_1234_ _1433_/Q _1455_/Q _1303_/S vssd1 vssd1 vccd1 vccd1 _1234_/X sky130_fd_sc_hd__mux2_1
X_0949_ _0949_/A vssd1 vssd1 vccd1 vccd1 _1366_/D sky130_fd_sc_hd__buf_1
XANTENNA__1315__S _1324_/S vssd1 vssd1 vccd1 vccd1 sky130_fd_sc_hd__diode_2
XFILLER_18_11 vssd1 vssd1 vccd1 vccd1 sky130_fd_sc_hd__fill_1
XFILLER_34_21 vssd1 vssd1 vccd1 vccd1 sky130_fd_sc_hd__fill_2
XFILLER_7_204 vssd1 vssd1 vccd1 vccd1 sky130_fd_sc_hd__fill_1
XFILLER_7_248 vssd1 vssd1 vccd1 vccd1 sky130_fd_sc_hd__decap_12
XANTENNA__1225__S _1327_/S vssd1 vssd1 vccd1 vccd1 sky130_fd_sc_hd__diode_2
X_0803_ _0811_/A vssd1 vssd1 vccd1 vccd1 _0803_/X sky130_fd_sc_hd__buf_1
X_0665_ _1344_/Q _0665_/B vssd1 vssd1 vccd1 vccd1 _0666_/B sky130_fd_sc_hd__or2_2
X_0734_ _0741_/A vssd1 vssd1 vccd1 vccd1 _0734_/X sky130_fd_sc_hd__buf_1
X_1217_ _1158_/B _1159_/X _1325_/S vssd1 vssd1 vccd1 vccd1 _1217_/X sky130_fd_sc_hd__mux2_1
X_1079_ _1434_/Q _1079_/B vssd1 vssd1 vccd1 vccd1 _1092_/C sky130_fd_sc_hd__or2_2
X_1148_ _1444_/Q _1443_/Q _1148_/C vssd1 vssd1 vccd1 vccd1 _1154_/B sky130_fd_sc_hd__or3_2
XANTENNA__0747__B1 slave_data_wdata_i[2] vssd1 vssd1 vccd1 vccd1 sky130_fd_sc_hd__diode_2
XFILLER_29_54 vssd1 vssd1 vccd1 vccd1 sky130_fd_sc_hd__fill_2
XFILLER_29_65 vssd1 vssd1 vccd1 vccd1 sky130_fd_sc_hd__decap_6
XFILLER_45_97 vssd1 vssd1 vccd1 vccd1 sky130_fd_sc_hd__decap_12
XFILLER_45_53 vssd1 vssd1 vccd1 vccd1 sky130_fd_sc_hd__decap_3
XANTENNA__0738__B1 slave_data_wdata_i[6] vssd1 vssd1 vccd1 vccd1 sky130_fd_sc_hd__diode_2
XTAP_306 vssd1 vccd1 sky130_fd_sc_hd__tapvpwrvgnd_1
XFILLER_34_111 vssd1 vssd1 vccd1 vccd1 sky130_fd_sc_hd__decap_3
X_1002_ _1002_/A vssd1 vssd1 vccd1 vccd1 _1348_/D sky130_fd_sc_hd__buf_1
XANTENNA__0729__B1 slave_data_wdata_i[10] vssd1 vssd1 vccd1 vccd1 sky130_fd_sc_hd__diode_2
X_0717_ _0735_/A vssd1 vssd1 vccd1 vccd1 _0717_/X sky130_fd_sc_hd__buf_1
XFILLER_25_111 vssd1 vssd1 vccd1 vccd1 sky130_fd_sc_hd__fill_1
XFILLER_25_166 vssd1 vssd1 vccd1 vccd1 sky130_fd_sc_hd__fill_2
Xclkbuf_4_10_0_clk clkbuf_3_5_0_clk/X vssd1 vssd1 vccd1 vccd1 _1422_/CLK sky130_fd_sc_hd__clkbuf_2
XFILLER_0_265 vssd1 vssd1 vccd1 vccd1 sky130_fd_sc_hd__decap_4
XFILLER_31_169 vssd1 vssd1 vccd1 vccd1 sky130_fd_sc_hd__fill_2
XFILLER_31_158 vssd1 vssd1 vccd1 vccd1 sky130_fd_sc_hd__decap_8
XFILLER_31_136 vssd1 vssd1 vccd1 vccd1 sky130_fd_sc_hd__decap_4
XTAP_114 vssd1 vccd1 sky130_fd_sc_hd__tapvpwrvgnd_1
XTAP_103 vssd1 vccd1 sky130_fd_sc_hd__tapvpwrvgnd_1
XTAP_125 vssd1 vccd1 sky130_fd_sc_hd__tapvpwrvgnd_1
XTAP_136 vssd1 vccd1 sky130_fd_sc_hd__tapvpwrvgnd_1
XTAP_147 vssd1 vccd1 sky130_fd_sc_hd__tapvpwrvgnd_1
XTAP_158 vssd1 vccd1 sky130_fd_sc_hd__tapvpwrvgnd_1
XTAP_169 vssd1 vccd1 sky130_fd_sc_hd__tapvpwrvgnd_1
XANTENNA__1323__S _1323_/S vssd1 vssd1 vccd1 vccd1 sky130_fd_sc_hd__diode_2
XFILLER_21_180 vssd1 vssd1 vccd1 vccd1 sky130_fd_sc_hd__fill_1
XFILLER_21_191 vssd1 vssd1 vccd1 vccd1 sky130_fd_sc_hd__fill_2
XFILLER_3_15 vssd1 vssd1 vccd1 vccd1 sky130_fd_sc_hd__decap_4
XANTENNA__1233__S _1303_/S vssd1 vssd1 vccd1 vccd1 sky130_fd_sc_hd__diode_2
XFILLER_36_239 vssd1 vssd1 vccd1 vccd1 sky130_fd_sc_hd__decap_3
X_0982_ _0982_/A vssd1 vssd1 vccd1 vccd1 _1356_/D sky130_fd_sc_hd__buf_1
X_1396_ _1397_/CLK _1396_/D vssd1 vssd1 vccd1 vccd1 _1396_/Q sky130_fd_sc_hd__dfxtp_2
XANTENNA__1318__S _1324_/S vssd1 vssd1 vccd1 vccd1 sky130_fd_sc_hd__diode_2
XFILLER_18_217 vssd1 vssd1 vccd1 vccd1 sky130_fd_sc_hd__fill_2
XFILLER_18_228 vssd1 vssd1 vccd1 vccd1 sky130_fd_sc_hd__fill_2
XFILLER_5_165 vssd1 vssd1 vccd1 vccd1 sky130_fd_sc_hd__decap_3
XANTENNA__1228__S _1326_/S vssd1 vssd1 vccd1 vccd1 sky130_fd_sc_hd__diode_2
X_1181_ _1377_/Q _0764_/B _0765_/B vssd1 vssd1 vccd1 vccd1 _1181_/X sky130_fd_sc_hd__a21bo_2
X_1250_ _1047_/B _1048_/X _1325_/S vssd1 vssd1 vccd1 vccd1 _1250_/X sky130_fd_sc_hd__mux2_1
XFILLER_32_264 vssd1 vssd1 vccd1 vccd1 sky130_fd_sc_hd__decap_6
XFILLER_32_253 vssd1 vssd1 vccd1 vccd1 sky130_fd_sc_hd__decap_6
X_0896_ _1387_/Q vssd1 vssd1 vccd1 vccd1 _0896_/Y sky130_fd_sc_hd__inv_2
X_0965_ _1327_/S _0964_/Y _0845_/X _0961_/Y _0843_/X vssd1 vssd1 vccd1 vccd1 _1362_/D
+ sky130_fd_sc_hd__o221a_2
X_1448_ _1448_/CLK _1448_/D vssd1 vssd1 vccd1 vccd1 _1448_/Q sky130_fd_sc_hd__dfxtp_2
X_1379_ _1383_/CLK _1379_/D vssd1 vssd1 vccd1 vccd1 _1379_/Q sky130_fd_sc_hd__dfxtp_2
XFILLER_23_78 vssd1 vssd1 vccd1 vccd1 sky130_fd_sc_hd__decap_12
XFILLER_0_27 vssd1 vssd1 vccd1 vccd1 sky130_fd_sc_hd__fill_1
X_0681_ _1460_/Q _0675_/X _1397_/Q _1021_/B _0680_/X vssd1 vssd1 vccd1 vccd1 _1460_/D
+ sky130_fd_sc_hd__o221a_2
X_0750_ _1064_/A _0741_/X slave_data_wdata_i[0] _0742_/X _0746_/X vssd1 vssd1 vccd1
+ vccd1 _1431_/D sky130_fd_sc_hd__o221a_2
X_1302_ _1339_/Q _0777_/Y _1452_/Q vssd1 vssd1 vccd1 vccd1 _1302_/X sky130_fd_sc_hd__mux2_1
X_1233_ _1435_/Q _1457_/Q _1303_/S vssd1 vssd1 vccd1 vccd1 _1233_/X sky130_fd_sc_hd__mux2_1
XFILLER_29_3 vssd1 vssd1 vccd1 vccd1 sky130_fd_sc_hd__decap_4
X_1095_ _1350_/Q _1094_/B _1111_/C vssd1 vssd1 vccd1 vccd1 _1095_/X sky130_fd_sc_hd__a21bo_2
X_1164_ _1164_/A _1164_/B vssd1 vssd1 vccd1 vccd1 _1164_/Y sky130_fd_sc_hd__nor2_2
X_0948_ _0941_/X _1263_/X vssd1 vssd1 vccd1 vccd1 _0949_/A sky130_fd_sc_hd__and2b_2
X_0879_ _1391_/Q _0879_/B vssd1 vssd1 vccd1 vccd1 _0879_/X sky130_fd_sc_hd__and2_2
XFILLER_34_99 vssd1 vssd1 vccd1 vccd1 sky130_fd_sc_hd__decap_12
XFILLER_38_109 vssd1 vssd1 vccd1 vccd1 sky130_fd_sc_hd__decap_12
XANTENNA__1241__S _1325_/S vssd1 vssd1 vccd1 vccd1 sky130_fd_sc_hd__diode_2
X_0802_ _0819_/A vssd1 vssd1 vccd1 vccd1 _0811_/A sky130_fd_sc_hd__buf_1
X_0664_ _1343_/Q _1342_/Q vssd1 vssd1 vccd1 vccd1 _0665_/B sky130_fd_sc_hd__or2_2
X_0733_ _1115_/A _0724_/X slave_data_wdata_i[8] _0725_/X _0728_/X vssd1 vssd1 vccd1
+ vccd1 _1439_/D sky130_fd_sc_hd__o221a_2
X_1216_ _1330_/Q _1421_/Q _1323_/S vssd1 vssd1 vccd1 vccd1 _1216_/X sky130_fd_sc_hd__mux2_1
X_1078_ _1078_/A vssd1 vssd1 vccd1 vccd1 _1078_/X sky130_fd_sc_hd__buf_1
X_1147_ _1444_/Q vssd1 vssd1 vccd1 vccd1 _1147_/Y sky130_fd_sc_hd__inv_2
XANTENNA__1326__S _1326_/S vssd1 vssd1 vccd1 vccd1 sky130_fd_sc_hd__diode_2
XFILLER_20_46 vssd1 vssd1 vccd1 vccd1 sky130_fd_sc_hd__decap_12
XFILLER_29_33 vssd1 vssd1 vccd1 vccd1 sky130_fd_sc_hd__decap_8
XFILLER_28_197 vssd1 vssd1 vccd1 vccd1 sky130_fd_sc_hd__decap_8
XFILLER_43_167 vssd1 vssd1 vccd1 vccd1 sky130_fd_sc_hd__fill_1
XFILLER_6_15 vssd1 vssd1 vccd1 vccd1 sky130_fd_sc_hd__decap_12
XTAP_307 vssd1 vccd1 sky130_fd_sc_hd__tapvpwrvgnd_1
XANTENNA__1236__S _1326_/S vssd1 vssd1 vccd1 vccd1 sky130_fd_sc_hd__diode_2
X_1001_ _1000_/X _1253_/X _1003_/C vssd1 vssd1 vccd1 vccd1 _1002_/A sky130_fd_sc_hd__and3b_2
XFILLER_19_175 vssd1 vssd1 vccd1 vccd1 sky130_fd_sc_hd__fill_1
X_0716_ _0742_/A vssd1 vssd1 vccd1 vccd1 _0735_/A sky130_fd_sc_hd__buf_1
XFILLER_15_24 vssd1 vssd1 vccd1 vccd1 sky130_fd_sc_hd__decap_12
XFILLER_0_222 vssd1 vssd1 vccd1 vccd1 sky130_fd_sc_hd__fill_2
XFILLER_16_167 vssd1 vssd1 vccd1 vccd1 sky130_fd_sc_hd__fill_1
XFILLER_16_178 vssd1 vssd1 vccd1 vccd1 sky130_fd_sc_hd__decap_12
XTAP_126 vssd1 vccd1 sky130_fd_sc_hd__tapvpwrvgnd_1
XTAP_115 vssd1 vccd1 sky130_fd_sc_hd__tapvpwrvgnd_1
XTAP_104 vssd1 vccd1 sky130_fd_sc_hd__tapvpwrvgnd_1
XTAP_137 vssd1 vccd1 sky130_fd_sc_hd__tapvpwrvgnd_1
XTAP_148 vssd1 vccd1 sky130_fd_sc_hd__tapvpwrvgnd_1
XANTENNA__0895__B1 _0843_/X vssd1 vssd1 vccd1 vccd1 sky130_fd_sc_hd__diode_2
XFILLER_11_3 vssd1 vssd1 vccd1 vccd1 sky130_fd_sc_hd__fill_1
XTAP_159 vssd1 vccd1 sky130_fd_sc_hd__tapvpwrvgnd_1
XFILLER_7_91 vssd1 vssd1 vccd1 vccd1 sky130_fd_sc_hd__decap_12
XFILLER_3_49 vssd1 vssd1 vccd1 vccd1 sky130_fd_sc_hd__fill_2
XFILLER_44_251 vssd1 vssd1 vccd1 vccd1 sky130_fd_sc_hd__fill_1
X_0981_ _0980_/X _1279_/X _0983_/C vssd1 vssd1 vccd1 vccd1 _0982_/A sky130_fd_sc_hd__and3b_2
XFILLER_8_130 vssd1 vssd1 vccd1 vccd1 sky130_fd_sc_hd__decap_8
X_1395_ _1397_/CLK _1395_/D vssd1 vssd1 vccd1 vccd1 _1395_/Q sky130_fd_sc_hd__dfxtp_2
XFILLER_10_129 vssd1 vssd1 vccd1 vccd1 sky130_fd_sc_hd__decap_3
XFILLER_12_47 vssd1 vssd1 vccd1 vccd1 sky130_fd_sc_hd__decap_6
XFILLER_37_55 vssd1 vssd1 vccd1 vccd1 sky130_fd_sc_hd__fill_1
XFILLER_26_251 vssd1 vssd1 vccd1 vccd1 sky130_fd_sc_hd__fill_1
XFILLER_5_111 vssd1 vssd1 vccd1 vccd1 sky130_fd_sc_hd__fill_1
XANTENNA__1244__S _1325_/S vssd1 vssd1 vccd1 vccd1 sky130_fd_sc_hd__diode_2
X_1180_ _1376_/Q _0763_/B _0764_/B vssd1 vssd1 vccd1 vccd1 _1180_/X sky130_fd_sc_hd__a21bo_2
XFILLER_17_251 vssd1 vssd1 vccd1 vccd1 sky130_fd_sc_hd__decap_12
XFILLER_32_221 vssd1 vssd1 vccd1 vccd1 sky130_fd_sc_hd__decap_3
X_0964_ _1247_/X _1056_/A vssd1 vssd1 vccd1 vccd1 _0964_/Y sky130_fd_sc_hd__nand2_2
X_0895_ _0891_/X _0897_/A _0893_/Y _0843_/X _0894_/Y vssd1 vssd1 vccd1 vccd1 _1388_/D
+ sky130_fd_sc_hd__o311a_2
X_1378_ _1383_/CLK _1378_/D vssd1 vssd1 vccd1 vccd1 _1378_/Q sky130_fd_sc_hd__dfxtp_2
X_1447_ _1448_/CLK _1447_/D vssd1 vssd1 vccd1 vccd1 _1447_/Q sky130_fd_sc_hd__dfxtp_2
XFILLER_23_57 vssd1 vssd1 vccd1 vccd1 sky130_fd_sc_hd__fill_1
XFILLER_9_15 vssd1 vssd1 vccd1 vccd1 sky130_fd_sc_hd__decap_6
XANTENNA__1239__S _1323_/S vssd1 vssd1 vccd1 vccd1 sky130_fd_sc_hd__diode_2
X_0680_ _1019_/A vssd1 vssd1 vccd1 vccd1 _0680_/X sky130_fd_sc_hd__buf_1
X_1232_ _1231_/X _1125_/X _1327_/S vssd1 vssd1 vccd1 vccd1 _1232_/X sky130_fd_sc_hd__mux2_1
X_1301_ _1300_/X _1103_/X _1327_/S vssd1 vssd1 vccd1 vccd1 _1301_/X sky130_fd_sc_hd__mux2_1
X_1094_ _1350_/Q _1094_/B vssd1 vssd1 vccd1 vccd1 _1111_/C sky130_fd_sc_hd__or2_2
X_1163_ _1360_/Q _0671_/B _1017_/B vssd1 vssd1 vccd1 vccd1 _1163_/X sky130_fd_sc_hd__a21o_2
X_0947_ _0947_/A vssd1 vssd1 vccd1 vccd1 _1367_/D sky130_fd_sc_hd__buf_1
XANTENNA__0774__A2 _1323_/S vssd1 vssd1 vccd1 vccd1 sky130_fd_sc_hd__diode_2
X_0878_ _0872_/X _0877_/X _1391_/Q _0859_/X vssd1 vssd1 vccd1 vccd1 _1391_/D sky130_fd_sc_hd__o22a_2
XANTENNA__1190__A2 _1326_/S vssd1 vssd1 vccd1 vccd1 sky130_fd_sc_hd__diode_2