* NGSPICE file created from uart_to_mem.ext - technology: sky130A

* Black-box entry subcircuit for sky130_fd_sc_hd__tapvpwrvgnd_1 abstract view
.subckt sky130_fd_sc_hd__tapvpwrvgnd_1 VGND VPWR
.ends

* Black-box entry subcircuit for sky130_fd_sc_hd__diode_2 abstract view
.subckt sky130_fd_sc_hd__diode_2 DIODE VGND VNB VPB VPWR
.ends

* Black-box entry subcircuit for sky130_fd_sc_hd__fill_1 abstract view
.subckt sky130_fd_sc_hd__fill_1 VGND VNB VPB VPWR
.ends

* Black-box entry subcircuit for sky130_fd_sc_hd__fill_2 abstract view
.subckt sky130_fd_sc_hd__fill_2 VGND VNB VPB VPWR
.ends

* Black-box entry subcircuit for sky130_fd_sc_hd__inv_2 abstract view
.subckt sky130_fd_sc_hd__inv_2 A VGND VNB VPB VPWR Y
.ends

* Black-box entry subcircuit for sky130_fd_sc_hd__decap_12 abstract view
.subckt sky130_fd_sc_hd__decap_12 VGND VNB VPB VPWR
.ends

* Black-box entry subcircuit for sky130_fd_sc_hd__or3b_2 abstract view
.subckt sky130_fd_sc_hd__or3b_2 A B C_N VGND VNB VPB VPWR X
.ends

* Black-box entry subcircuit for sky130_fd_sc_hd__o22ai_2 abstract view
.subckt sky130_fd_sc_hd__o22ai_2 A1 A2 B1 B2 VGND VNB VPB VPWR Y
.ends

* Black-box entry subcircuit for sky130_fd_sc_hd__o22a_2 abstract view
.subckt sky130_fd_sc_hd__o22a_2 A1 A2 B1 B2 VGND VNB VPB VPWR X
.ends

* Black-box entry subcircuit for sky130_fd_sc_hd__nor2_2 abstract view
.subckt sky130_fd_sc_hd__nor2_2 A B VGND VNB VPB VPWR Y
.ends

* Black-box entry subcircuit for sky130_fd_sc_hd__buf_1 abstract view
.subckt sky130_fd_sc_hd__buf_1 A VGND VNB VPB VPWR X
.ends

* Black-box entry subcircuit for sky130_fd_sc_hd__decap_8 abstract view
.subckt sky130_fd_sc_hd__decap_8 VGND VNB VPB VPWR
.ends

* Black-box entry subcircuit for sky130_fd_sc_hd__decap_3 abstract view
.subckt sky130_fd_sc_hd__decap_3 VGND VNB VPB VPWR
.ends

* Black-box entry subcircuit for sky130_fd_sc_hd__or4_2 abstract view
.subckt sky130_fd_sc_hd__or4_2 A B C D VGND VNB VPB VPWR X
.ends

* Black-box entry subcircuit for sky130_fd_sc_hd__a22o_2 abstract view
.subckt sky130_fd_sc_hd__a22o_2 A1 A2 B1 B2 VGND VNB VPB VPWR X
.ends

* Black-box entry subcircuit for sky130_fd_sc_hd__dfxtp_2 abstract view
.subckt sky130_fd_sc_hd__dfxtp_2 CLK D VGND VNB VPB VPWR Q
.ends

* Black-box entry subcircuit for sky130_fd_sc_hd__o221a_2 abstract view
.subckt sky130_fd_sc_hd__o221a_2 A1 A2 B1 B2 C1 VGND VNB VPB VPWR X
.ends

* Black-box entry subcircuit for sky130_fd_sc_hd__or2_2 abstract view
.subckt sky130_fd_sc_hd__or2_2 A B VGND VNB VPB VPWR X
.ends

* Black-box entry subcircuit for sky130_fd_sc_hd__decap_6 abstract view
.subckt sky130_fd_sc_hd__decap_6 VGND VNB VPB VPWR
.ends

* Black-box entry subcircuit for sky130_fd_sc_hd__decap_4 abstract view
.subckt sky130_fd_sc_hd__decap_4 VGND VNB VPB VPWR
.ends

* Black-box entry subcircuit for sky130_fd_sc_hd__dfrtp_2 abstract view
.subckt sky130_fd_sc_hd__dfrtp_2 CLK D RESET_B VGND VNB VPB VPWR Q
.ends

* Black-box entry subcircuit for sky130_fd_sc_hd__mux2_1 abstract view
.subckt sky130_fd_sc_hd__mux2_1 A0 A1 S VGND VNB VPB VPWR X
.ends

* Black-box entry subcircuit for sky130_fd_sc_hd__clkbuf_2 abstract view
.subckt sky130_fd_sc_hd__clkbuf_2 A VGND VNB VPB VPWR X
.ends

* Black-box entry subcircuit for sky130_fd_sc_hd__a21bo_2 abstract view
.subckt sky130_fd_sc_hd__a21bo_2 A1 A2 B1_N VGND VNB VPB VPWR X
.ends

* Black-box entry subcircuit for sky130_fd_sc_hd__and2_2 abstract view
.subckt sky130_fd_sc_hd__and2_2 A B VGND VNB VPB VPWR X
.ends

* Black-box entry subcircuit for sky130_fd_sc_hd__o211a_2 abstract view
.subckt sky130_fd_sc_hd__o211a_2 A1 A2 B1 C1 VGND VNB VPB VPWR X
.ends

* Black-box entry subcircuit for sky130_fd_sc_hd__a21oi_2 abstract view
.subckt sky130_fd_sc_hd__a21oi_2 A1 A2 B1 VGND VNB VPB VPWR Y
.ends

* Black-box entry subcircuit for sky130_fd_sc_hd__inv_4 abstract view
.subckt sky130_fd_sc_hd__inv_4 A VGND VNB VPB VPWR Y
.ends

* Black-box entry subcircuit for sky130_fd_sc_hd__or3_2 abstract view
.subckt sky130_fd_sc_hd__or3_2 A B C VGND VNB VPB VPWR X
.ends

* Black-box entry subcircuit for sky130_fd_sc_hd__o2bb2a_2 abstract view
.subckt sky130_fd_sc_hd__o2bb2a_2 A1_N A2_N B1 B2 VGND VNB VPB VPWR X
.ends

* Black-box entry subcircuit for sky130_fd_sc_hd__a2bb2o_2 abstract view
.subckt sky130_fd_sc_hd__a2bb2o_2 A1_N A2_N B1 B2 VGND VNB VPB VPWR X
.ends

* Black-box entry subcircuit for sky130_fd_sc_hd__o311a_2 abstract view
.subckt sky130_fd_sc_hd__o311a_2 A1 A2 A3 B1 C1 VGND VNB VPB VPWR X
.ends

* Black-box entry subcircuit for sky130_fd_sc_hd__o221ai_2 abstract view
.subckt sky130_fd_sc_hd__o221ai_2 A1 A2 B1 B2 C1 VGND VNB VPB VPWR Y
.ends

* Black-box entry subcircuit for sky130_fd_sc_hd__a21o_2 abstract view
.subckt sky130_fd_sc_hd__a21o_2 A1 A2 B1 VGND VNB VPB VPWR X
.ends

* Black-box entry subcircuit for sky130_fd_sc_hd__o21ai_2 abstract view
.subckt sky130_fd_sc_hd__o21ai_2 A1 A2 B1 VGND VNB VPB VPWR Y
.ends

* Black-box entry subcircuit for sky130_fd_sc_hd__nand2_2 abstract view
.subckt sky130_fd_sc_hd__nand2_2 A B VGND VNB VPB VPWR Y
.ends

* Black-box entry subcircuit for sky130_fd_sc_hd__o21a_2 abstract view
.subckt sky130_fd_sc_hd__o21a_2 A1 A2 B1 VGND VNB VPB VPWR X
.ends

* Black-box entry subcircuit for sky130_fd_sc_hd__and4b_2 abstract view
.subckt sky130_fd_sc_hd__and4b_2 A_N B C D VGND VNB VPB VPWR X
.ends

* Black-box entry subcircuit for sky130_fd_sc_hd__a221oi_2 abstract view
.subckt sky130_fd_sc_hd__a221oi_2 A1 A2 B1 B2 C1 VGND VNB VPB VPWR Y
.ends

* Black-box entry subcircuit for sky130_fd_sc_hd__mux2_2 abstract view
.subckt sky130_fd_sc_hd__mux2_2 A0 A1 S VGND VNB VPB VPWR X
.ends

* Black-box entry subcircuit for sky130_fd_sc_hd__o32a_2 abstract view
.subckt sky130_fd_sc_hd__o32a_2 A1 A2 A3 B1 B2 VGND VNB VPB VPWR X
.ends

* Black-box entry subcircuit for sky130_fd_sc_hd__a32o_2 abstract view
.subckt sky130_fd_sc_hd__a32o_2 A1 A2 A3 B1 B2 VGND VNB VPB VPWR X
.ends

* Black-box entry subcircuit for sky130_fd_sc_hd__o2bb2ai_2 abstract view
.subckt sky130_fd_sc_hd__o2bb2ai_2 A1_N A2_N B1 B2 VGND VNB VPB VPWR Y
.ends

* Black-box entry subcircuit for sky130_fd_sc_hd__a22oi_2 abstract view
.subckt sky130_fd_sc_hd__a22oi_2 A1 A2 B1 B2 VGND VNB VPB VPWR Y
.ends

* Black-box entry subcircuit for sky130_fd_sc_hd__clkbuf_16 abstract view
.subckt sky130_fd_sc_hd__clkbuf_16 A VGND VNB VPB VPWR X
.ends

* Black-box entry subcircuit for sky130_fd_sc_hd__dfstp_2 abstract view
.subckt sky130_fd_sc_hd__dfstp_2 CLK D SET_B VGND VNB VPB VPWR Q
.ends

* Black-box entry subcircuit for sky130_fd_sc_hd__a31o_2 abstract view
.subckt sky130_fd_sc_hd__a31o_2 A1 A2 A3 B1 VGND VNB VPB VPWR X
.ends

* Black-box entry subcircuit for sky130_fd_sc_hd__and2b_2 abstract view
.subckt sky130_fd_sc_hd__and2b_2 A_N B VGND VNB VPB VPWR X
.ends

* Black-box entry subcircuit for sky130_fd_sc_hd__buf_2 abstract view
.subckt sky130_fd_sc_hd__buf_2 A VGND VNB VPB VPWR X
.ends

* Black-box entry subcircuit for sky130_fd_sc_hd__conb_1 abstract view
.subckt sky130_fd_sc_hd__conb_1 VGND VNB VPB VPWR HI LO
.ends

* Black-box entry subcircuit for sky130_fd_sc_hd__nor4_2 abstract view
.subckt sky130_fd_sc_hd__nor4_2 A B C D VGND VNB VPB VPWR Y
.ends

* Black-box entry subcircuit for sky130_fd_sc_hd__o2111a_2 abstract view
.subckt sky130_fd_sc_hd__o2111a_2 A1 A2 B1 C1 D1 VGND VNB VPB VPWR X
.ends

* Black-box entry subcircuit for sky130_fd_sc_hd__a211o_2 abstract view
.subckt sky130_fd_sc_hd__a211o_2 A1 A2 B1 C1 VGND VNB VPB VPWR X
.ends

* Black-box entry subcircuit for sky130_fd_sc_hd__o31a_2 abstract view
.subckt sky130_fd_sc_hd__o31a_2 A1 A2 A3 B1 VGND VNB VPB VPWR X
.ends

* Black-box entry subcircuit for sky130_fd_sc_hd__and3_2 abstract view
.subckt sky130_fd_sc_hd__and3_2 A B C VGND VNB VPB VPWR X
.ends

* Black-box entry subcircuit for sky130_fd_sc_hd__o2111ai_2 abstract view
.subckt sky130_fd_sc_hd__o2111ai_2 A1 A2 B1 C1 D1 VGND VNB VPB VPWR Y
.ends

* Black-box entry subcircuit for sky130_fd_sc_hd__a31oi_2 abstract view
.subckt sky130_fd_sc_hd__a31oi_2 A1 A2 A3 B1 VGND VNB VPB VPWR Y
.ends

* Black-box entry subcircuit for sky130_fd_sc_hd__a41o_2 abstract view
.subckt sky130_fd_sc_hd__a41o_2 A1 A2 A3 A4 B1 VGND VNB VPB VPWR X
.ends

* Black-box entry subcircuit for sky130_fd_sc_hd__and3b_2 abstract view
.subckt sky130_fd_sc_hd__and3b_2 A_N B C VGND VNB VPB VPWR X
.ends

.subckt uart_to_mem clk_i data_addr_o[0] data_addr_o[10] data_addr_o[11] data_addr_o[1]
+ data_addr_o[2] data_addr_o[3] data_addr_o[4] data_addr_o[5] data_addr_o[6] data_addr_o[7]
+ data_addr_o[8] data_addr_o[9] data_be_o[0] data_be_o[1] data_be_o[2] data_be_o[3]
+ data_gnt_i data_rdata_i[0] data_rdata_i[10] data_rdata_i[11] data_rdata_i[12] data_rdata_i[13]
+ data_rdata_i[14] data_rdata_i[15] data_rdata_i[16] data_rdata_i[17] data_rdata_i[18]
+ data_rdata_i[19] data_rdata_i[1] data_rdata_i[20] data_rdata_i[21] data_rdata_i[22]
+ data_rdata_i[23] data_rdata_i[24] data_rdata_i[25] data_rdata_i[26] data_rdata_i[27]
+ data_rdata_i[28] data_rdata_i[29] data_rdata_i[2] data_rdata_i[30] data_rdata_i[31]
+ data_rdata_i[3] data_rdata_i[4] data_rdata_i[5] data_rdata_i[6] data_rdata_i[7]
+ data_rdata_i[8] data_rdata_i[9] data_req_o data_rvalid_i data_wdata_o[0] data_wdata_o[10]
+ data_wdata_o[11] data_wdata_o[12] data_wdata_o[13] data_wdata_o[14] data_wdata_o[15]
+ data_wdata_o[16] data_wdata_o[17] data_wdata_o[18] data_wdata_o[19] data_wdata_o[1]
+ data_wdata_o[20] data_wdata_o[21] data_wdata_o[22] data_wdata_o[23] data_wdata_o[24]
+ data_wdata_o[25] data_wdata_o[26] data_wdata_o[27] data_wdata_o[28] data_wdata_o[29]
+ data_wdata_o[2] data_wdata_o[30] data_wdata_o[31] data_wdata_o[3] data_wdata_o[4]
+ data_wdata_o[5] data_wdata_o[6] data_wdata_o[7] data_wdata_o[8] data_wdata_o[9]
+ data_we_o rst_i rx_i tx_o uart_error vccd1 vssd1
XTAP_177 vssd1 vccd1 sky130_fd_sc_hd__tapvpwrvgnd_1
XTAP_188 vssd1 vccd1 sky130_fd_sc_hd__tapvpwrvgnd_1
XTAP_199 vssd1 vccd1 sky130_fd_sc_hd__tapvpwrvgnd_1
XANTENNA__0965__B1 _1780_/Q vssd1 vssd1 vccd1 vccd1 sky130_fd_sc_hd__diode_2
XANTENNA__1142__B1 data_rdata_i[3] vssd1 vssd1 vccd1 vccd1 sky130_fd_sc_hd__diode_2
XFILLER_13_133 vssd1 vssd1 vccd1 vccd1 sky130_fd_sc_hd__fill_1
XFILLER_26_85 vssd1 vssd1 vccd1 vccd1 sky130_fd_sc_hd__fill_1
XFILLER_9_104 vssd1 vssd1 vccd1 vccd1 sky130_fd_sc_hd__fill_2
XFILLER_13_177 vssd1 vssd1 vccd1 vccd1 sky130_fd_sc_hd__fill_1
XANTENNA__1874__CLK _1875_/CLK vssd1 vssd1 vccd1 vccd1 sky130_fd_sc_hd__diode_2
X_1270_ _1270_/A vssd1 vssd1 vccd1 vccd1 _1414_/A sky130_fd_sc_hd__inv_2
XFILLER_51_239 vssd1 vssd1 vccd1 vccd1 sky130_fd_sc_hd__decap_12
X_0985_ _0985_/A _1777_/Q _1778_/Q vssd1 vssd1 vccd1 vccd1 _1023_/C sky130_fd_sc_hd__or3b_2
X_1606_ _1691_/X _1592_/X _1232_/B _1605_/X vssd1 vssd1 vccd1 vccd1 _1606_/Y sky130_fd_sc_hd__o22ai_2
X_1399_ _1710_/X _1186_/X _1790_/Q _1397_/X vssd1 vssd1 vccd1 vccd1 _1790_/D sky130_fd_sc_hd__o22a_2
X_1468_ _1468_/A _1468_/B vssd1 vssd1 vccd1 vccd1 _1468_/Y sky130_fd_sc_hd__nor2_2
X_1537_ _1537_/A vssd1 vssd1 vccd1 vccd1 _1538_/B sky130_fd_sc_hd__buf_1
XFILLER_42_206 vssd1 vssd1 vccd1 vccd1 sky130_fd_sc_hd__fill_2
XFILLER_27_225 vssd1 vssd1 vccd1 vccd1 sky130_fd_sc_hd__decap_8
XFILLER_27_203 vssd1 vssd1 vccd1 vccd1 sky130_fd_sc_hd__decap_12
XANTENNA__0938__B1 _1778_/Q vssd1 vssd1 vccd1 vccd1 sky130_fd_sc_hd__diode_2
XFILLER_10_147 vssd1 vssd1 vccd1 vccd1 sky130_fd_sc_hd__fill_1
XFILLER_10_158 vssd1 vssd1 vccd1 vccd1 sky130_fd_sc_hd__decap_3
XFILLER_12_21 vssd1 vssd1 vccd1 vccd1 sky130_fd_sc_hd__fill_1
XFILLER_12_32 vssd1 vssd1 vccd1 vccd1 sky130_fd_sc_hd__decap_8
XFILLER_41_283 vssd1 vssd1 vccd1 vccd1 sky130_fd_sc_hd__decap_12
XFILLER_41_261 vssd1 vssd1 vccd1 vccd1 sky130_fd_sc_hd__fill_1
XANTENNA__1418__A1 _1777_/Q vssd1 vssd1 vccd1 vccd1 sky130_fd_sc_hd__diode_2
X_1322_ _1325_/A vssd1 vssd1 vccd1 vccd1 _1323_/A sky130_fd_sc_hd__buf_1
X_1253_ _1689_/X _1253_/B _1253_/C _1253_/D vssd1 vssd1 vccd1 vccd1 _1254_/A sky130_fd_sc_hd__or4_2
XANTENNA__1106__B1 data_rdata_i[21] vssd1 vssd1 vccd1 vccd1 sky130_fd_sc_hd__diode_2
X_1184_ _1397_/A vssd1 vssd1 vccd1 vccd1 _1195_/A sky130_fd_sc_hd__inv_2
XANTENNA__1409__A1 _1784_/Q vssd1 vssd1 vccd1 vccd1 sky130_fd_sc_hd__diode_2
X_0968_ _0968_/A vssd1 vssd1 vccd1 vccd1 _0968_/X sky130_fd_sc_hd__buf_1
X_0899_ data_wdata_o[18] _0893_/X _1779_/Q _0894_/X vssd1 vssd1 vccd1 vccd1 _1903_/D
+ sky130_fd_sc_hd__a22o_2
XANTENNA__1345__B1 _1784_/Q vssd1 vssd1 vccd1 vccd1 sky130_fd_sc_hd__diode_2
XFILLER_15_206 vssd1 vssd1 vccd1 vccd1 sky130_fd_sc_hd__fill_1
XANTENNA__1336__B1 _1778_/Q vssd1 vssd1 vccd1 vccd1 sky130_fd_sc_hd__diode_2
XFILLER_2_110 vssd1 vssd1 vccd1 vccd1 sky130_fd_sc_hd__decap_3
XFILLER_0_57 vssd1 vssd1 vccd1 vccd1 sky130_fd_sc_hd__decap_12
X_1871_ _1904_/CLK _1871_/D vssd1 vssd1 vccd1 vccd1 _1871_/Q sky130_fd_sc_hd__dfxtp_2
XFILLER_50_3 vssd1 vssd1 vccd1 vccd1 sky130_fd_sc_hd__decap_12
X_1305_ data_addr_o[8] _1292_/X _1777_/Q _1294_/A vssd1 vssd1 vccd1 vccd1 _1821_/D
+ sky130_fd_sc_hd__a22o_2
X_1236_ _1688_/X vssd1 vssd1 vccd1 vccd1 _1238_/B sky130_fd_sc_hd__inv_2
XFILLER_44_19 vssd1 vssd1 vccd1 vccd1 sky130_fd_sc_hd__fill_1
X_1098_ _1867_/Q _1095_/X data_rdata_i[26] _1096_/X _1093_/X vssd1 vssd1 vccd1 vccd1
+ _1867_/D sky130_fd_sc_hd__o221a_2
X_1167_ _1755_/Q _1756_/Q vssd1 vssd1 vccd1 vccd1 _1530_/B sky130_fd_sc_hd__or2_2
XANTENNA__1318__B1 _1783_/Q vssd1 vssd1 vccd1 vccd1 sky130_fd_sc_hd__diode_2
XFILLER_18_20 vssd1 vssd1 vccd1 vccd1 sky130_fd_sc_hd__fill_1
XFILLER_34_85 vssd1 vssd1 vccd1 vccd1 sky130_fd_sc_hd__decap_3
XFILLER_34_52 vssd1 vssd1 vccd1 vccd1 sky130_fd_sc_hd__decap_12
XFILLER_7_246 vssd1 vssd1 vccd1 vccd1 sky130_fd_sc_hd__decap_6
XFILLER_46_194 vssd1 vssd1 vccd1 vccd1 sky130_fd_sc_hd__fill_2
XFILLER_34_301 vssd1 vssd1 vccd1 vccd1 sky130_fd_sc_hd__decap_4
X_1021_ _1021_/A uart_error vssd1 vssd1 vccd1 vccd1 _1021_/X sky130_fd_sc_hd__or2_2
X_1785_ _1835_/CLK _1785_/D vssd1 vssd1 vccd1 vccd1 tx_o sky130_fd_sc_hd__dfxtp_2
X_1854_ _1903_/CLK _1854_/D vssd1 vssd1 vccd1 vccd1 _1854_/Q sky130_fd_sc_hd__dfxtp_2
XFILLER_29_106 vssd1 vssd1 vccd1 vccd1 sky130_fd_sc_hd__fill_1
X_1219_ _1219_/A vssd1 vssd1 vccd1 vccd1 _1258_/B sky130_fd_sc_hd__inv_2
XFILLER_40_304 vssd1 vssd1 vccd1 vccd1 sky130_fd_sc_hd__fill_1
XFILLER_20_21 vssd1 vssd1 vccd1 vccd1 sky130_fd_sc_hd__decap_6
XFILLER_43_186 vssd1 vssd1 vccd1 vccd1 sky130_fd_sc_hd__decap_3
XFILLER_43_142 vssd1 vssd1 vccd1 vccd1 sky130_fd_sc_hd__fill_2
XFILLER_16_301 vssd1 vssd1 vccd1 vccd1 sky130_fd_sc_hd__decap_4
XTAP_348 vssd1 vccd1 sky130_fd_sc_hd__tapvpwrvgnd_1
XTAP_337 vssd1 vccd1 sky130_fd_sc_hd__tapvpwrvgnd_1
XTAP_326 vssd1 vccd1 sky130_fd_sc_hd__tapvpwrvgnd_1
X_1570_ _1570_/A vssd1 vssd1 vccd1 vccd1 _1570_/X sky130_fd_sc_hd__buf_1
XTAP_315 vssd1 vccd1 sky130_fd_sc_hd__tapvpwrvgnd_1
XTAP_304 vssd1 vccd1 sky130_fd_sc_hd__tapvpwrvgnd_1
XTAP_359 vssd1 vccd1 sky130_fd_sc_hd__tapvpwrvgnd_1
XFILLER_19_161 vssd1 vssd1 vccd1 vccd1 sky130_fd_sc_hd__decap_6
XFILLER_34_175 vssd1 vssd1 vccd1 vccd1 sky130_fd_sc_hd__fill_1
XFILLER_34_131 vssd1 vssd1 vccd1 vccd1 sky130_fd_sc_hd__fill_2
X_1004_ data_req_o _1837_/Q _1021_/A _1004_/D vssd1 vssd1 vccd1 vccd1 _1428_/C sky130_fd_sc_hd__or4_2
X_1906_ _1908_/CLK _1906_/D _0886_/X vssd1 vssd1 vccd1 vccd1 data_wdata_o[21] sky130_fd_sc_hd__dfrtp_2
X_1768_ _1888_/CLK _1768_/D vssd1 vssd1 vccd1 vccd1 _1768_/Q sky130_fd_sc_hd__dfxtp_2
X_1837_ _1840_/CLK _1837_/D vssd1 vssd1 vccd1 vccd1 _1837_/Q sky130_fd_sc_hd__dfxtp_2
X_1699_ _1842_/Q _1850_/Q _1796_/Q vssd1 vssd1 vccd1 vccd1 _1699_/X sky130_fd_sc_hd__mux2_1
XFILLER_25_164 vssd1 vssd1 vccd1 vccd1 sky130_fd_sc_hd__decap_4
XFILLER_31_31 vssd1 vssd1 vccd1 vccd1 sky130_fd_sc_hd__fill_1
XFILLER_0_230 vssd1 vssd1 vccd1 vccd1 sky130_fd_sc_hd__decap_8
XFILLER_0_274 vssd1 vssd1 vccd1 vccd1 sky130_fd_sc_hd__decap_6
XFILLER_31_145 vssd1 vssd1 vccd1 vccd1 sky130_fd_sc_hd__fill_2
X_1622_ _1657_/X _1714_/S _1725_/S _1621_/X vssd1 vssd1 vccd1 vccd1 _1622_/X sky130_fd_sc_hd__a22o_2
XTAP_145 vssd1 vccd1 sky130_fd_sc_hd__tapvpwrvgnd_1
XTAP_134 vssd1 vccd1 sky130_fd_sc_hd__tapvpwrvgnd_1
X_1553_ _1553_/A vssd1 vssd1 vccd1 vccd1 _1554_/B sky130_fd_sc_hd__buf_1
X_1484_ _1600_/A _1484_/B vssd1 vssd1 vccd1 vccd1 _1485_/A sky130_fd_sc_hd__or2_2
XTAP_123 vssd1 vccd1 sky130_fd_sc_hd__tapvpwrvgnd_1
XTAP_112 vssd1 vccd1 sky130_fd_sc_hd__tapvpwrvgnd_1
XTAP_156 vssd1 vccd1 sky130_fd_sc_hd__tapvpwrvgnd_1
XTAP_167 vssd1 vccd1 sky130_fd_sc_hd__tapvpwrvgnd_1
XTAP_178 vssd1 vccd1 sky130_fd_sc_hd__tapvpwrvgnd_1
XTAP_189 vssd1 vccd1 sky130_fd_sc_hd__tapvpwrvgnd_1
XFILLER_39_267 vssd1 vssd1 vccd1 vccd1 sky130_fd_sc_hd__decap_12
Xclkbuf_4_12_0_clk_i clkbuf_3_6_0_clk_i/X vssd1 vssd1 vccd1 vccd1 _1859_/CLK sky130_fd_sc_hd__clkbuf_2
X_0984_ _1778_/Q _0985_/A _1777_/Q vssd1 vssd1 vccd1 vccd1 _1468_/A sky130_fd_sc_hd__or3b_2
X_1536_ _1758_/Q _1530_/X _1540_/B vssd1 vssd1 vccd1 vccd1 _1537_/A sky130_fd_sc_hd__a21bo_2
XFILLER_8_193 vssd1 vssd1 vccd1 vccd1 sky130_fd_sc_hd__decap_3
X_1605_ _1605_/A _1646_/X vssd1 vssd1 vccd1 vccd1 _1605_/X sky130_fd_sc_hd__and2_2
X_1398_ _1709_/X _1186_/X _1791_/Q _1397_/X vssd1 vssd1 vccd1 vccd1 _1791_/D sky130_fd_sc_hd__o22a_2
XFILLER_27_215 vssd1 vssd1 vccd1 vccd1 sky130_fd_sc_hd__fill_1
X_1467_ _1278_/A _1358_/A _0871_/A _0946_/B vssd1 vssd1 vccd1 vccd1 _1803_/D sky130_fd_sc_hd__o22ai_2
XFILLER_35_281 vssd1 vssd1 vccd1 vccd1 sky130_fd_sc_hd__decap_12
XANTENNA__0938__A1 data_wdata_o[9] vssd1 vssd1 vccd1 vccd1 sky130_fd_sc_hd__diode_2
XFILLER_12_44 vssd1 vssd1 vccd1 vccd1 sky130_fd_sc_hd__decap_8
XFILLER_12_88 vssd1 vssd1 vccd1 vccd1 sky130_fd_sc_hd__decap_8
XFILLER_2_303 vssd1 vssd1 vccd1 vccd1 sky130_fd_sc_hd__fill_2
XFILLER_41_295 vssd1 vssd1 vccd1 vccd1 sky130_fd_sc_hd__decap_8
XFILLER_26_270 vssd1 vssd1 vccd1 vccd1 sky130_fd_sc_hd__fill_1
X_1321_ data_wdata_o[29] _1310_/X _1782_/Q _1312_/X vssd1 vssd1 vccd1 vccd1 _1818_/D
+ sky130_fd_sc_hd__a22o_2
X_1252_ _1589_/B vssd1 vssd1 vccd1 vccd1 _1253_/D sky130_fd_sc_hd__inv_2
X_1183_ _1613_/A _1196_/A _1613_/B _1405_/B vssd1 vssd1 vccd1 vccd1 _1397_/A sky130_fd_sc_hd__o211a_2
XFILLER_17_281 vssd1 vssd1 vccd1 vccd1 sky130_fd_sc_hd__decap_12
XANTENNA__1042__B1 _1781_/Q vssd1 vssd1 vccd1 vccd1 sky130_fd_sc_hd__diode_2
XFILLER_32_262 vssd1 vssd1 vccd1 vccd1 sky130_fd_sc_hd__decap_12
X_0967_ _0976_/A vssd1 vssd1 vccd1 vccd1 _0968_/A sky130_fd_sc_hd__buf_1
X_0898_ _0898_/A vssd1 vssd1 vccd1 vccd1 _0898_/X sky130_fd_sc_hd__buf_1
X_1519_ _1775_/Q _1514_/X _1243_/Y vssd1 vssd1 vccd1 vccd1 _1521_/B sky130_fd_sc_hd__a21oi_2
XANTENNA__1345__A1 data_addr_o[7] vssd1 vssd1 vccd1 vccd1 sky130_fd_sc_hd__diode_2
XFILLER_23_43 vssd1 vssd1 vccd1 vccd1 sky130_fd_sc_hd__decap_12
XFILLER_23_98 vssd1 vssd1 vccd1 vccd1 sky130_fd_sc_hd__decap_4
XANTENNA__1336__A1 data_wdata_o[25] vssd1 vssd1 vccd1 vccd1 sky130_fd_sc_hd__diode_2
XFILLER_2_144 vssd1 vssd1 vccd1 vccd1 sky130_fd_sc_hd__decap_4
XFILLER_0_69 vssd1 vssd1 vccd1 vccd1 sky130_fd_sc_hd__decap_12
X_1870_ _1904_/CLK _1870_/D vssd1 vssd1 vccd1 vccd1 _1870_/Q sky130_fd_sc_hd__dfxtp_2
XFILLER_43_3 vssd1 vssd1 vccd1 vccd1 sky130_fd_sc_hd__decap_4
X_1304_ _1304_/A vssd1 vssd1 vccd1 vccd1 _1304_/X sky130_fd_sc_hd__buf_1
X_1235_ _1692_/X vssd1 vssd1 vccd1 vccd1 _1600_/B sky130_fd_sc_hd__inv_4
X_1166_ _1738_/Q vssd1 vssd1 vccd1 vccd1 _1166_/Y sky130_fd_sc_hd__inv_2
X_1097_ _1868_/Q _1095_/X data_rdata_i[27] _1096_/X _1093_/X vssd1 vssd1 vccd1 vccd1
+ _1868_/D sky130_fd_sc_hd__o221a_2
XFILLER_20_265 vssd1 vssd1 vccd1 vccd1 sky130_fd_sc_hd__decap_12
XANTENNA__1318__A1 data_wdata_o[30] vssd1 vssd1 vccd1 vccd1 sky130_fd_sc_hd__diode_2
XFILLER_50_41 vssd1 vssd1 vccd1 vccd1 sky130_fd_sc_hd__decap_6
XFILLER_34_64 vssd1 vssd1 vccd1 vccd1 sky130_fd_sc_hd__fill_2
XFILLER_7_225 vssd1 vssd1 vccd1 vccd1 sky130_fd_sc_hd__decap_3
XFILLER_50_85 vssd1 vssd1 vccd1 vccd1 sky130_fd_sc_hd__fill_1
XFILLER_50_74 vssd1 vssd1 vccd1 vccd1 sky130_fd_sc_hd__decap_8
X_1020_ _1784_/Q _1020_/B _1782_/Q vssd1 vssd1 vccd1 vccd1 _1469_/B sky130_fd_sc_hd__or3b_2
XFILLER_6_280 vssd1 vssd1 vccd1 vccd1 sky130_fd_sc_hd__decap_12
X_1784_ _1895_/CLK _1784_/D vssd1 vssd1 vccd1 vccd1 _1784_/Q sky130_fd_sc_hd__dfxtp_2
X_1853_ _1895_/CLK _1853_/D vssd1 vssd1 vccd1 vccd1 _1853_/Q sky130_fd_sc_hd__dfxtp_2
XFILLER_37_151 vssd1 vssd1 vccd1 vccd1 sky130_fd_sc_hd__decap_6
X_1218_ _1828_/Q _1827_/Q vssd1 vssd1 vccd1 vccd1 _1219_/A sky130_fd_sc_hd__or2_2
X_1149_ _1831_/Q vssd1 vssd1 vccd1 vccd1 _1149_/Y sky130_fd_sc_hd__inv_2
XFILLER_4_206 vssd1 vssd1 vccd1 vccd1 sky130_fd_sc_hd__decap_8
XFILLER_20_11 vssd1 vssd1 vccd1 vccd1 sky130_fd_sc_hd__fill_1
XTAP_349 vssd1 vccd1 sky130_fd_sc_hd__tapvpwrvgnd_1
XTAP_338 vssd1 vccd1 sky130_fd_sc_hd__tapvpwrvgnd_1
XTAP_327 vssd1 vccd1 sky130_fd_sc_hd__tapvpwrvgnd_1
XTAP_316 vssd1 vccd1 sky130_fd_sc_hd__tapvpwrvgnd_1
XTAP_305 vssd1 vccd1 sky130_fd_sc_hd__tapvpwrvgnd_1
XFILLER_3_272 vssd1 vssd1 vccd1 vccd1 sky130_fd_sc_hd__decap_3
X_1003_ _1825_/Q data_rvalid_i data_gnt_i vssd1 vssd1 vccd1 vccd1 _1004_/D sky130_fd_sc_hd__or3_2
X_1905_ _1908_/CLK _1905_/D _0889_/X vssd1 vssd1 vccd1 vccd1 data_wdata_o[20] sky130_fd_sc_hd__dfrtp_2
X_1698_ _1697_/X _1871_/Q _1794_/Q vssd1 vssd1 vccd1 vccd1 _1698_/X sky130_fd_sc_hd__mux2_1
X_1836_ _1881_/CLK _1836_/D vssd1 vssd1 vccd1 vccd1 _1836_/Q sky130_fd_sc_hd__dfxtp_2
X_1767_ _1830_/CLK _1767_/D vssd1 vssd1 vccd1 vccd1 _1767_/Q sky130_fd_sc_hd__dfxtp_2
XFILLER_0_253 vssd1 vssd1 vccd1 vccd1 sky130_fd_sc_hd__decap_12
XFILLER_16_132 vssd1 vssd1 vccd1 vccd1 sky130_fd_sc_hd__decap_4
X_1621_ _1837_/Q _1652_/X vssd1 vssd1 vccd1 vccd1 _1621_/X sky130_fd_sc_hd__or2_2
X_1552_ _1761_/Q _1545_/X _1551_/X vssd1 vssd1 vccd1 vccd1 _1553_/A sky130_fd_sc_hd__a21bo_2
XTAP_135 vssd1 vccd1 sky130_fd_sc_hd__tapvpwrvgnd_1
XTAP_124 vssd1 vccd1 sky130_fd_sc_hd__tapvpwrvgnd_1
XTAP_113 vssd1 vccd1 sky130_fd_sc_hd__tapvpwrvgnd_1
XTAP_146 vssd1 vccd1 sky130_fd_sc_hd__tapvpwrvgnd_1
X_1483_ _1595_/A vssd1 vssd1 vccd1 vccd1 _1600_/A sky130_fd_sc_hd__buf_1
XTAP_157 vssd1 vccd1 sky130_fd_sc_hd__tapvpwrvgnd_1
XTAP_168 vssd1 vccd1 sky130_fd_sc_hd__tapvpwrvgnd_1
XTAP_179 vssd1 vccd1 sky130_fd_sc_hd__tapvpwrvgnd_1
XFILLER_39_279 vssd1 vssd1 vccd1 vccd1 sky130_fd_sc_hd__fill_1
X_1819_ _1908_/CLK _1819_/D _1317_/X vssd1 vssd1 vccd1 vccd1 data_wdata_o[30] sky130_fd_sc_hd__dfrtp_2
XFILLER_26_21 vssd1 vssd1 vccd1 vccd1 sky130_fd_sc_hd__decap_6
XFILLER_26_43 vssd1 vssd1 vccd1 vccd1 sky130_fd_sc_hd__decap_3
XFILLER_26_65 vssd1 vssd1 vccd1 vccd1 sky130_fd_sc_hd__fill_1
XFILLER_26_98 vssd1 vssd1 vccd1 vccd1 sky130_fd_sc_hd__decap_8
XFILLER_42_75 vssd1 vssd1 vccd1 vccd1 sky130_fd_sc_hd__fill_1
XFILLER_51_208 vssd1 vssd1 vccd1 vccd1 sky130_fd_sc_hd__decap_3
X_0983_ _1784_/Q _1020_/B _0983_/C vssd1 vssd1 vccd1 vccd1 _0985_/A sky130_fd_sc_hd__or3_2
XFILLER_8_183 vssd1 vssd1 vccd1 vccd1 sky130_fd_sc_hd__decap_6
X_1604_ _1604_/A vssd1 vssd1 vccd1 vccd1 _1604_/X sky130_fd_sc_hd__buf_1
X_1535_ _1535_/A vssd1 vssd1 vccd1 vccd1 _1535_/X sky130_fd_sc_hd__buf_1
X_1397_ _1397_/A vssd1 vssd1 vccd1 vccd1 _1397_/X sky130_fd_sc_hd__buf_1
X_1466_ _1743_/Q _1463_/A _1465_/Y _1463_/Y vssd1 vssd1 vccd1 vccd1 _1466_/X sky130_fd_sc_hd__a22o_2
XFILLER_35_293 vssd1 vssd1 vccd1 vccd1 sky130_fd_sc_hd__decap_12
XFILLER_12_78 vssd1 vssd1 vccd1 vccd1 sky130_fd_sc_hd__decap_6
XFILLER_37_42 vssd1 vssd1 vccd1 vccd1 sky130_fd_sc_hd__decap_12
XFILLER_41_230 vssd1 vssd1 vccd1 vccd1 sky130_fd_sc_hd__decap_8
X_1320_ _1320_/A vssd1 vssd1 vccd1 vccd1 _1320_/X sky130_fd_sc_hd__buf_1
X_1182_ _1189_/A _1674_/S _1837_/Q _1181_/Y vssd1 vssd1 vccd1 vccd1 _1405_/B sky130_fd_sc_hd__o2bb2a_2
X_1251_ _1251_/A vssd1 vssd1 vccd1 vccd1 _1589_/B sky130_fd_sc_hd__buf_1
XFILLER_32_274 vssd1 vssd1 vccd1 vccd1 sky130_fd_sc_hd__decap_12
XFILLER_17_271 vssd1 vssd1 vccd1 vccd1 sky130_fd_sc_hd__decap_8
XFILLER_17_293 vssd1 vssd1 vccd1 vccd1 sky130_fd_sc_hd__decap_12
X_0897_ _0906_/A vssd1 vssd1 vccd1 vccd1 _0898_/A sky130_fd_sc_hd__buf_1
X_0966_ _0966_/A vssd1 vssd1 vccd1 vccd1 _0976_/A sky130_fd_sc_hd__buf_1
X_1518_ _1518_/A vssd1 vssd1 vccd1 vccd1 _1518_/X sky130_fd_sc_hd__buf_1
X_1449_ _1749_/Q _1447_/B _1448_/Y vssd1 vssd1 vccd1 vccd1 _1449_/Y sky130_fd_sc_hd__a21oi_2
XFILLER_23_55 vssd1 vssd1 vccd1 vccd1 sky130_fd_sc_hd__fill_1
XFILLER_3_3 vssd1 vssd1 vccd1 vccd1 sky130_fd_sc_hd__decap_12
XFILLER_2_101 vssd1 vssd1 vccd1 vccd1 sky130_fd_sc_hd__fill_1
XFILLER_48_85 vssd1 vssd1 vccd1 vccd1 sky130_fd_sc_hd__decap_12
XFILLER_0_15 vssd1 vssd1 vccd1 vccd1 sky130_fd_sc_hd__decap_12
XFILLER_9_46 vssd1 vssd1 vccd1 vccd1 sky130_fd_sc_hd__decap_6
XFILLER_9_57 vssd1 vssd1 vccd1 vccd1 sky130_fd_sc_hd__fill_1
X_1303_ _1306_/A vssd1 vssd1 vccd1 vccd1 _1304_/A sky130_fd_sc_hd__buf_1
XFILLER_36_3 vssd1 vssd1 vccd1 vccd1 sky130_fd_sc_hd__decap_12
X_1096_ _1111_/A vssd1 vssd1 vccd1 vccd1 _1096_/X sky130_fd_sc_hd__buf_1
X_1234_ _1691_/X vssd1 vssd1 vccd1 vccd1 _1253_/B sky130_fd_sc_hd__inv_2
X_1165_ _1652_/X _1648_/X _1647_/X vssd1 vssd1 vccd1 vccd1 _1179_/C sky130_fd_sc_hd__or3_2
X_0949_ _0964_/A vssd1 vssd1 vccd1 vccd1 _0949_/X sky130_fd_sc_hd__buf_1
XFILLER_20_277 vssd1 vssd1 vccd1 vccd1 sky130_fd_sc_hd__decap_12
XFILLER_28_300 vssd1 vssd1 vccd1 vccd1 sky130_fd_sc_hd__decap_4
Xclkbuf_3_7_0_clk_i clkbuf_0_clk_i/X vssd1 vssd1 vccd1 vccd1 clkbuf_3_7_0_clk_i/X
+ sky130_fd_sc_hd__clkbuf_2
XFILLER_11_233 vssd1 vssd1 vccd1 vccd1 sky130_fd_sc_hd__decap_12
XFILLER_11_266 vssd1 vssd1 vccd1 vccd1 sky130_fd_sc_hd__decap_12
X_1852_ _1852_/CLK _1852_/D vssd1 vssd1 vccd1 vccd1 _1852_/Q sky130_fd_sc_hd__dfxtp_2
XFILLER_6_292 vssd1 vssd1 vccd1 vccd1 sky130_fd_sc_hd__decap_12
X_1783_ _1895_/CLK _1783_/D vssd1 vssd1 vccd1 vccd1 _1783_/Q sky130_fd_sc_hd__dfxtp_2
XFILLER_37_163 vssd1 vssd1 vccd1 vccd1 sky130_fd_sc_hd__decap_4
X_1079_ _1873_/Q vssd1 vssd1 vccd1 vccd1 _1079_/Y sky130_fd_sc_hd__inv_2
X_1217_ _1829_/Q vssd1 vssd1 vccd1 vccd1 _1258_/A sky130_fd_sc_hd__inv_2
X_1148_ data_we_o _1737_/X _1147_/Y _1737_/S _1145_/X vssd1 vssd1 vccd1 vccd1 _1840_/D
+ sky130_fd_sc_hd__o221a_2
XFILLER_20_45 vssd1 vssd1 vccd1 vccd1 sky130_fd_sc_hd__fill_1
XFILLER_20_89 vssd1 vssd1 vccd1 vccd1 sky130_fd_sc_hd__fill_1
XFILLER_29_98 vssd1 vssd1 vccd1 vccd1 sky130_fd_sc_hd__decap_8
XFILLER_29_65 vssd1 vssd1 vccd1 vccd1 sky130_fd_sc_hd__decap_3
XFILLER_29_54 vssd1 vssd1 vccd1 vccd1 sky130_fd_sc_hd__fill_2
XFILLER_28_152 vssd1 vssd1 vccd1 vccd1 sky130_fd_sc_hd__fill_1
XTAP_339 vssd1 vccd1 sky130_fd_sc_hd__tapvpwrvgnd_1
XTAP_328 vssd1 vccd1 sky130_fd_sc_hd__tapvpwrvgnd_1
XTAP_317 vssd1 vccd1 sky130_fd_sc_hd__tapvpwrvgnd_1
XTAP_306 vssd1 vccd1 sky130_fd_sc_hd__tapvpwrvgnd_1
X_1002_ _1002_/A vssd1 vssd1 vccd1 vccd1 _1605_/A sky130_fd_sc_hd__buf_1
X_1904_ _1904_/CLK _1904_/D _0892_/X vssd1 vssd1 vccd1 vccd1 data_wdata_o[19] sky130_fd_sc_hd__dfrtp_2
X_1835_ _1835_/CLK _1835_/D vssd1 vssd1 vccd1 vccd1 _1835_/Q sky130_fd_sc_hd__dfxtp_2
X_1697_ _1696_/X _1863_/Q _1798_/Q vssd1 vssd1 vccd1 vccd1 _1697_/X sky130_fd_sc_hd__mux2_1
X_1766_ _1851_/CLK _1766_/D vssd1 vssd1 vccd1 vccd1 _1766_/Q sky130_fd_sc_hd__dfxtp_2
XFILLER_40_147 vssd1 vssd1 vccd1 vccd1 sky130_fd_sc_hd__decap_12
XFILLER_31_55 vssd1 vssd1 vccd1 vccd1 sky130_fd_sc_hd__fill_1
XFILLER_31_11 vssd1 vssd1 vccd1 vccd1 sky130_fd_sc_hd__decap_3
XFILLER_0_221 vssd1 vssd1 vccd1 vccd1 sky130_fd_sc_hd__decap_3
XFILLER_0_265 vssd1 vssd1 vccd1 vccd1 sky130_fd_sc_hd__fill_1
XFILLER_16_144 vssd1 vssd1 vccd1 vccd1 sky130_fd_sc_hd__decap_4
X_1551_ _1760_/Q _1761_/Q _1551_/C vssd1 vssd1 vccd1 vccd1 _1551_/X sky130_fd_sc_hd__or3_2
XANTENNA__1474__A rx_i vssd1 vssd1 vccd1 vccd1 sky130_fd_sc_hd__diode_2
X_1482_ _1482_/A vssd1 vssd1 vccd1 vccd1 _1484_/B sky130_fd_sc_hd__buf_1
XTAP_114 vssd1 vccd1 sky130_fd_sc_hd__tapvpwrvgnd_1
X_1620_ _1620_/A vssd1 vssd1 vccd1 vccd1 _1620_/X sky130_fd_sc_hd__buf_1
XFILLER_39_236 vssd1 vssd1 vccd1 vccd1 sky130_fd_sc_hd__decap_6
XTAP_136 vssd1 vccd1 sky130_fd_sc_hd__tapvpwrvgnd_1
XTAP_125 vssd1 vccd1 sky130_fd_sc_hd__tapvpwrvgnd_1
XTAP_147 vssd1 vccd1 sky130_fd_sc_hd__tapvpwrvgnd_1
XTAP_158 vssd1 vccd1 sky130_fd_sc_hd__tapvpwrvgnd_1
XTAP_169 vssd1 vccd1 sky130_fd_sc_hd__tapvpwrvgnd_1
XANTENNA__1687__A1 rx_i vssd1 vssd1 vccd1 vccd1 sky130_fd_sc_hd__diode_2
XANTENNA__1136__B1 data_rdata_i[6] vssd1 vssd1 vccd1 vccd1 sky130_fd_sc_hd__diode_2
XFILLER_22_114 vssd1 vssd1 vccd1 vccd1 sky130_fd_sc_hd__fill_1
X_1818_ _1908_/CLK _1818_/D _1320_/X vssd1 vssd1 vccd1 vccd1 data_wdata_o[29] sky130_fd_sc_hd__dfrtp_2
X_1749_ _1830_/CLK _1749_/D vssd1 vssd1 vccd1 vccd1 _1749_/Q sky130_fd_sc_hd__dfxtp_2
Xclkbuf_4_6_0_clk_i clkbuf_4_7_0_clk_i/A vssd1 vssd1 vccd1 vccd1 _1852_/CLK sky130_fd_sc_hd__clkbuf_2
XFILLER_26_33 vssd1 vssd1 vccd1 vccd1 sky130_fd_sc_hd__fill_1
XFILLER_13_169 vssd1 vssd1 vccd1 vccd1 sky130_fd_sc_hd__decap_8
XFILLER_3_15 vssd1 vssd1 vccd1 vccd1 sky130_fd_sc_hd__decap_12
X_0982_ _1782_/Q _1781_/Q _1780_/Q _1779_/Q vssd1 vssd1 vccd1 vccd1 _0983_/C sky130_fd_sc_hd__or4_2
XANTENNA__1109__B1 data_rdata_i[20] vssd1 vssd1 vccd1 vccd1 sky130_fd_sc_hd__diode_2
X_1534_ _1543_/A _1534_/B vssd1 vssd1 vccd1 vccd1 _1535_/A sky130_fd_sc_hd__and2_2
X_1603_ _1610_/A _1691_/X vssd1 vssd1 vccd1 vccd1 _1604_/A sky130_fd_sc_hd__or2_2
X_1465_ _1743_/Q vssd1 vssd1 vccd1 vccd1 _1465_/Y sky130_fd_sc_hd__inv_2
X_1396_ _1708_/X _1186_/X _1792_/Q _1187_/X vssd1 vssd1 vccd1 vccd1 _1792_/D sky130_fd_sc_hd__o22a_2
XFILLER_50_253 vssd1 vssd1 vccd1 vccd1 sky130_fd_sc_hd__decap_12
XFILLER_41_220 vssd1 vssd1 vccd1 vccd1 sky130_fd_sc_hd__decap_4
XFILLER_37_65 vssd1 vssd1 vccd1 vccd1 sky130_fd_sc_hd__fill_1
XFILLER_37_54 vssd1 vssd1 vccd1 vccd1 sky130_fd_sc_hd__fill_2
XANTENNA__1339__B1 _1777_/Q vssd1 vssd1 vccd1 vccd1 sky130_fd_sc_hd__diode_2
X_1181_ _1613_/A vssd1 vssd1 vccd1 vccd1 _1181_/Y sky130_fd_sc_hd__inv_2
X_1250_ _1746_/Q _1692_/S _1746_/Q _1692_/S vssd1 vssd1 vccd1 vccd1 _1251_/A sky130_fd_sc_hd__a2bb2o_2
XFILLER_32_286 vssd1 vssd1 vccd1 vccd1 sky130_fd_sc_hd__decap_12
XFILLER_32_242 vssd1 vssd1 vccd1 vccd1 sky130_fd_sc_hd__fill_2
XFILLER_17_250 vssd1 vssd1 vccd1 vccd1 sky130_fd_sc_hd__decap_4
X_0896_ _1145_/A vssd1 vssd1 vccd1 vccd1 _0906_/A sky130_fd_sc_hd__buf_1
X_0965_ data_wdata_o[3] _0963_/X _1780_/Q _0964_/X vssd1 vssd1 vccd1 vccd1 _1888_/D
+ sky130_fd_sc_hd__a22o_2