* NGSPICE file created from uart_to_mem.ext - technology: sky130A

* Black-box entry subcircuit for sky130_fd_sc_hd__diode_2 abstract view
.subckt sky130_fd_sc_hd__diode_2 DIODE VGND VNB VPB VPWR
.ends

* Black-box entry subcircuit for sky130_fd_sc_hd__decap_6 abstract view
.subckt sky130_fd_sc_hd__decap_6 VGND VNB VPB VPWR
.ends

* Black-box entry subcircuit for sky130_fd_sc_hd__tapvpwrvgnd_1 abstract view
.subckt sky130_fd_sc_hd__tapvpwrvgnd_1 VGND VPWR
.ends

* Black-box entry subcircuit for sky130_fd_sc_hd__decap_12 abstract view
.subckt sky130_fd_sc_hd__decap_12 VGND VNB VPB VPWR
.ends

* Black-box entry subcircuit for sky130_fd_sc_hd__decap_3 abstract view
.subckt sky130_fd_sc_hd__decap_3 VGND VNB VPB VPWR
.ends

* Black-box entry subcircuit for sky130_fd_sc_hd__decap_8 abstract view
.subckt sky130_fd_sc_hd__decap_8 VGND VNB VPB VPWR
.ends

* Black-box entry subcircuit for sky130_fd_sc_hd__fill_1 abstract view
.subckt sky130_fd_sc_hd__fill_1 VGND VNB VPB VPWR
.ends

* Black-box entry subcircuit for sky130_fd_sc_hd__nor2_2 abstract view
.subckt sky130_fd_sc_hd__nor2_2 A B VGND VNB VPB VPWR Y
.ends

* Black-box entry subcircuit for sky130_fd_sc_hd__buf_1 abstract view
.subckt sky130_fd_sc_hd__buf_1 A VGND VNB VPB VPWR X
.ends

* Black-box entry subcircuit for sky130_fd_sc_hd__or2_2 abstract view
.subckt sky130_fd_sc_hd__or2_2 A B VGND VNB VPB VPWR X
.ends

* Black-box entry subcircuit for sky130_fd_sc_hd__o22ai_2 abstract view
.subckt sky130_fd_sc_hd__o22ai_2 A1 A2 B1 B2 VGND VNB VPB VPWR Y
.ends

* Black-box entry subcircuit for sky130_fd_sc_hd__fill_2 abstract view
.subckt sky130_fd_sc_hd__fill_2 VGND VNB VPB VPWR
.ends

* Black-box entry subcircuit for sky130_fd_sc_hd__decap_4 abstract view
.subckt sky130_fd_sc_hd__decap_4 VGND VNB VPB VPWR
.ends

* Black-box entry subcircuit for sky130_fd_sc_hd__inv_2 abstract view
.subckt sky130_fd_sc_hd__inv_2 A VGND VNB VPB VPWR Y
.ends

* Black-box entry subcircuit for sky130_fd_sc_hd__or3_2 abstract view
.subckt sky130_fd_sc_hd__or3_2 A B C VGND VNB VPB VPWR X
.ends

* Black-box entry subcircuit for sky130_fd_sc_hd__a22o_2 abstract view
.subckt sky130_fd_sc_hd__a22o_2 A1 A2 B1 B2 VGND VNB VPB VPWR X
.ends

* Black-box entry subcircuit for sky130_fd_sc_hd__dfrtp_2 abstract view
.subckt sky130_fd_sc_hd__dfrtp_2 CLK D RESET_B VGND VNB VPB VPWR Q
.ends

* Black-box entry subcircuit for sky130_fd_sc_hd__dfxtp_2 abstract view
.subckt sky130_fd_sc_hd__dfxtp_2 CLK D VGND VNB VPB VPWR Q
.ends

* Black-box entry subcircuit for sky130_fd_sc_hd__a2bb2o_2 abstract view
.subckt sky130_fd_sc_hd__a2bb2o_2 A1_N A2_N B1 B2 VGND VNB VPB VPWR X
.ends

* Black-box entry subcircuit for sky130_fd_sc_hd__o2bb2a_2 abstract view
.subckt sky130_fd_sc_hd__o2bb2a_2 A1_N A2_N B1 B2 VGND VNB VPB VPWR X
.ends

* Black-box entry subcircuit for sky130_fd_sc_hd__o221a_2 abstract view
.subckt sky130_fd_sc_hd__o221a_2 A1 A2 B1 B2 C1 VGND VNB VPB VPWR X
.ends

* Black-box entry subcircuit for sky130_fd_sc_hd__o2bb2ai_2 abstract view
.subckt sky130_fd_sc_hd__o2bb2ai_2 A1_N A2_N B1 B2 VGND VNB VPB VPWR Y
.ends

* Black-box entry subcircuit for sky130_fd_sc_hd__mux2_1 abstract view
.subckt sky130_fd_sc_hd__mux2_1 A0 A1 S VGND VNB VPB VPWR X
.ends

* Black-box entry subcircuit for sky130_fd_sc_hd__conb_1 abstract view
.subckt sky130_fd_sc_hd__conb_1 VGND VNB VPB VPWR HI LO
.ends

* Black-box entry subcircuit for sky130_fd_sc_hd__a21bo_2 abstract view
.subckt sky130_fd_sc_hd__a21bo_2 A1 A2 B1_N VGND VNB VPB VPWR X
.ends

* Black-box entry subcircuit for sky130_fd_sc_hd__a31o_2 abstract view
.subckt sky130_fd_sc_hd__a31o_2 A1 A2 A3 B1 VGND VNB VPB VPWR X
.ends

* Black-box entry subcircuit for sky130_fd_sc_hd__clkbuf_2 abstract view
.subckt sky130_fd_sc_hd__clkbuf_2 A VGND VNB VPB VPWR X
.ends

* Black-box entry subcircuit for sky130_fd_sc_hd__a32o_2 abstract view
.subckt sky130_fd_sc_hd__a32o_2 A1 A2 A3 B1 B2 VGND VNB VPB VPWR X
.ends

* Black-box entry subcircuit for sky130_fd_sc_hd__o21a_2 abstract view
.subckt sky130_fd_sc_hd__o21a_2 A1 A2 B1 VGND VNB VPB VPWR X
.ends

* Black-box entry subcircuit for sky130_fd_sc_hd__a22oi_2 abstract view
.subckt sky130_fd_sc_hd__a22oi_2 A1 A2 B1 B2 VGND VNB VPB VPWR Y
.ends

* Black-box entry subcircuit for sky130_fd_sc_hd__and2_2 abstract view
.subckt sky130_fd_sc_hd__and2_2 A B VGND VNB VPB VPWR X
.ends

* Black-box entry subcircuit for sky130_fd_sc_hd__nand2_2 abstract view
.subckt sky130_fd_sc_hd__nand2_2 A B VGND VNB VPB VPWR Y
.ends

* Black-box entry subcircuit for sky130_fd_sc_hd__or4_2 abstract view
.subckt sky130_fd_sc_hd__or4_2 A B C D VGND VNB VPB VPWR X
.ends

* Black-box entry subcircuit for sky130_fd_sc_hd__o21ai_2 abstract view
.subckt sky130_fd_sc_hd__o21ai_2 A1 A2 B1 VGND VNB VPB VPWR Y
.ends

* Black-box entry subcircuit for sky130_fd_sc_hd__o22a_2 abstract view
.subckt sky130_fd_sc_hd__o22a_2 A1 A2 B1 B2 VGND VNB VPB VPWR X
.ends

* Black-box entry subcircuit for sky130_fd_sc_hd__a221oi_2 abstract view
.subckt sky130_fd_sc_hd__a221oi_2 A1 A2 B1 B2 C1 VGND VNB VPB VPWR Y
.ends

* Black-box entry subcircuit for sky130_fd_sc_hd__a21oi_2 abstract view
.subckt sky130_fd_sc_hd__a21oi_2 A1 A2 B1 VGND VNB VPB VPWR Y
.ends

* Black-box entry subcircuit for sky130_fd_sc_hd__and2b_2 abstract view
.subckt sky130_fd_sc_hd__and2b_2 A_N B VGND VNB VPB VPWR X
.ends

* Black-box entry subcircuit for sky130_fd_sc_hd__mux2_2 abstract view
.subckt sky130_fd_sc_hd__mux2_2 A0 A1 S VGND VNB VPB VPWR X
.ends

* Black-box entry subcircuit for sky130_fd_sc_hd__o2111ai_2 abstract view
.subckt sky130_fd_sc_hd__o2111ai_2 A1 A2 B1 C1 D1 VGND VNB VPB VPWR Y
.ends

* Black-box entry subcircuit for sky130_fd_sc_hd__a31oi_2 abstract view
.subckt sky130_fd_sc_hd__a31oi_2 A1 A2 A3 B1 VGND VNB VPB VPWR Y
.ends

* Black-box entry subcircuit for sky130_fd_sc_hd__o221ai_2 abstract view
.subckt sky130_fd_sc_hd__o221ai_2 A1 A2 B1 B2 C1 VGND VNB VPB VPWR Y
.ends

* Black-box entry subcircuit for sky130_fd_sc_hd__clkbuf_16 abstract view
.subckt sky130_fd_sc_hd__clkbuf_16 A VGND VNB VPB VPWR X
.ends

* Black-box entry subcircuit for sky130_fd_sc_hd__a41o_2 abstract view
.subckt sky130_fd_sc_hd__a41o_2 A1 A2 A3 A4 B1 VGND VNB VPB VPWR X
.ends

* Black-box entry subcircuit for sky130_fd_sc_hd__o211a_2 abstract view
.subckt sky130_fd_sc_hd__o211a_2 A1 A2 B1 C1 VGND VNB VPB VPWR X
.ends

* Black-box entry subcircuit for sky130_fd_sc_hd__dfstp_2 abstract view
.subckt sky130_fd_sc_hd__dfstp_2 CLK D SET_B VGND VNB VPB VPWR Q
.ends

* Black-box entry subcircuit for sky130_fd_sc_hd__o31a_2 abstract view
.subckt sky130_fd_sc_hd__o31a_2 A1 A2 A3 B1 VGND VNB VPB VPWR X
.ends

* Black-box entry subcircuit for sky130_fd_sc_hd__and3_2 abstract view
.subckt sky130_fd_sc_hd__and3_2 A B C VGND VNB VPB VPWR X
.ends

* Black-box entry subcircuit for sky130_fd_sc_hd__buf_2 abstract view
.subckt sky130_fd_sc_hd__buf_2 A VGND VNB VPB VPWR X
.ends

* Black-box entry subcircuit for sky130_fd_sc_hd__a21o_2 abstract view
.subckt sky130_fd_sc_hd__a21o_2 A1 A2 B1 VGND VNB VPB VPWR X
.ends

* Black-box entry subcircuit for sky130_fd_sc_hd__clkdlybuf4s50_1 abstract view
.subckt sky130_fd_sc_hd__clkdlybuf4s50_1 A VGND VNB VPB VPWR X
.ends

* Black-box entry subcircuit for sky130_fd_sc_hd__and3b_2 abstract view
.subckt sky130_fd_sc_hd__and3b_2 A_N B C VGND VNB VPB VPWR X
.ends

* Black-box entry subcircuit for sky130_fd_sc_hd__nor4_2 abstract view
.subckt sky130_fd_sc_hd__nor4_2 A B C D VGND VNB VPB VPWR Y
.ends

* Black-box entry subcircuit for sky130_fd_sc_hd__a211o_2 abstract view
.subckt sky130_fd_sc_hd__a211o_2 A1 A2 B1 C1 VGND VNB VPB VPWR X
.ends

* Black-box entry subcircuit for sky130_fd_sc_hd__o32a_2 abstract view
.subckt sky130_fd_sc_hd__o32a_2 A1 A2 A3 B1 B2 VGND VNB VPB VPWR X
.ends

* Black-box entry subcircuit for sky130_fd_sc_hd__or3b_2 abstract view
.subckt sky130_fd_sc_hd__or3b_2 A B C_N VGND VNB VPB VPWR X
.ends

* Black-box entry subcircuit for sky130_fd_sc_hd__o2111a_2 abstract view
.subckt sky130_fd_sc_hd__o2111a_2 A1 A2 B1 C1 D1 VGND VNB VPB VPWR X
.ends

* Black-box entry subcircuit for sky130_fd_sc_hd__o311a_2 abstract view
.subckt sky130_fd_sc_hd__o311a_2 A1 A2 A3 B1 C1 VGND VNB VPB VPWR X
.ends

* Black-box entry subcircuit for sky130_fd_sc_hd__and4b_2 abstract view
.subckt sky130_fd_sc_hd__and4b_2 A_N B C D VGND VNB VPB VPWR X
.ends

.subckt uart_to_mem clk_i data_addr_o[0] data_addr_o[10] data_addr_o[11] data_addr_o[1]
+ data_addr_o[2] data_addr_o[3] data_addr_o[4] data_addr_o[5] data_addr_o[6] data_addr_o[7]
+ data_addr_o[8] data_addr_o[9] data_be_o[0] data_be_o[1] data_be_o[2] data_be_o[3]
+ data_gnt_i data_rdata_i[0] data_rdata_i[10] data_rdata_i[11] data_rdata_i[12] data_rdata_i[13]
+ data_rdata_i[14] data_rdata_i[15] data_rdata_i[16] data_rdata_i[17] data_rdata_i[18]
+ data_rdata_i[19] data_rdata_i[1] data_rdata_i[20] data_rdata_i[21] data_rdata_i[22]
+ data_rdata_i[23] data_rdata_i[24] data_rdata_i[25] data_rdata_i[26] data_rdata_i[27]
+ data_rdata_i[28] data_rdata_i[29] data_rdata_i[2] data_rdata_i[30] data_rdata_i[31]
+ data_rdata_i[3] data_rdata_i[4] data_rdata_i[5] data_rdata_i[6] data_rdata_i[7]
+ data_rdata_i[8] data_rdata_i[9] data_req_o data_rvalid_i data_wdata_o[0] data_wdata_o[10]
+ data_wdata_o[11] data_wdata_o[12] data_wdata_o[13] data_wdata_o[14] data_wdata_o[15]
+ data_wdata_o[16] data_wdata_o[17] data_wdata_o[18] data_wdata_o[19] data_wdata_o[1]
+ data_wdata_o[20] data_wdata_o[21] data_wdata_o[22] data_wdata_o[23] data_wdata_o[24]
+ data_wdata_o[25] data_wdata_o[26] data_wdata_o[27] data_wdata_o[28] data_wdata_o[29]
+ data_wdata_o[2] data_wdata_o[30] data_wdata_o[31] data_wdata_o[3] data_wdata_o[4]
+ data_wdata_o[5] data_wdata_o[6] data_wdata_o[7] data_wdata_o[8] data_wdata_o[9]
+ data_we_o rst_i rx_i tx_o uart_error vccd1 vssd1
XANTENNA__1151__B1 data_rdata_i[26] vssd1 vssd1 vccd1 vccd1 sky130_fd_sc_hd__diode_2
XFILLER_39_299 vssd1 vssd1 vccd1 vccd1 sky130_fd_sc_hd__decap_6
XTAP_177 vssd1 vccd1 sky130_fd_sc_hd__tapvpwrvgnd_1
XTAP_188 vssd1 vccd1 sky130_fd_sc_hd__tapvpwrvgnd_1
XTAP_199 vssd1 vccd1 sky130_fd_sc_hd__tapvpwrvgnd_1
XANTENNA__1206__A1 data_req_o vssd1 vssd1 vccd1 vccd1 sky130_fd_sc_hd__diode_2
XANTENNA__1142__B1 data_rdata_i[31] vssd1 vssd1 vccd1 vccd1 sky130_fd_sc_hd__diode_2
XFILLER_45_225 vssd1 vssd1 vccd1 vccd1 sky130_fd_sc_hd__decap_12
XFILLER_45_203 vssd1 vssd1 vccd1 vccd1 sky130_fd_sc_hd__decap_3
XFILLER_26_85 vssd1 vssd1 vccd1 vccd1 sky130_fd_sc_hd__decap_8
XFILLER_9_137 vssd1 vssd1 vccd1 vccd1 sky130_fd_sc_hd__decap_8
XFILLER_36_203 vssd1 vssd1 vccd1 vccd1 sky130_fd_sc_hd__fill_1
X_1270_ _1456_/A _1270_/B vssd1 vssd1 vccd1 vccd1 _1897_/D sky130_fd_sc_hd__nor2_2
XFILLER_44_280 vssd1 vssd1 vccd1 vccd1 sky130_fd_sc_hd__decap_12
X_0985_ _0985_/A vssd1 vssd1 vccd1 vccd1 _0985_/X sky130_fd_sc_hd__buf_1
X_1606_ _1825_/Q _1606_/B vssd1 vssd1 vccd1 vccd1 _1617_/C sky130_fd_sc_hd__or2_2
X_1399_ _1399_/A vssd1 vssd1 vccd1 vccd1 _1400_/A sky130_fd_sc_hd__buf_1
X_1468_ _1476_/A vssd1 vssd1 vccd1 vccd1 _1468_/X sky130_fd_sc_hd__buf_1
X_1537_ _0987_/B _1486_/X _1500_/Y _1488_/X vssd1 vssd1 vccd1 vccd1 _1863_/D sky130_fd_sc_hd__o22ai_2
XFILLER_27_225 vssd1 vssd1 vccd1 vccd1 sky130_fd_sc_hd__fill_2
XFILLER_18_247 vssd1 vssd1 vccd1 vccd1 sky130_fd_sc_hd__decap_4
X_1322_ _1893_/Q vssd1 vssd1 vccd1 vccd1 _1644_/B sky130_fd_sc_hd__inv_2
X_1253_ _1263_/B _1465_/B _1253_/C vssd1 vssd1 vccd1 vccd1 _1253_/X sky130_fd_sc_hd__or3_2
X_1184_ _1184_/A vssd1 vssd1 vccd1 vccd1 _1184_/X sky130_fd_sc_hd__buf_1
X_0968_ data_wdata_o[12] _0953_/X _0926_/X _0955_/X vssd1 vssd1 vccd1 vccd1 _1963_/D
+ sky130_fd_sc_hd__a22o_2
X_0899_ _1864_/Q vssd1 vssd1 vccd1 vccd1 _0906_/B sky130_fd_sc_hd__inv_2
XFILLER_23_261 vssd1 vssd1 vccd1 vccd1 sky130_fd_sc_hd__decap_8
XFILLER_23_42 vssd1 vssd1 vccd1 vccd1 sky130_fd_sc_hd__decap_3
XFILLER_23_53 vssd1 vssd1 vccd1 vccd1 sky130_fd_sc_hd__decap_3
XFILLER_2_132 vssd1 vssd1 vccd1 vccd1 sky130_fd_sc_hd__decap_8
XFILLER_48_83 vssd1 vssd1 vccd1 vccd1 sky130_fd_sc_hd__fill_1
XFILLER_0_57 vssd1 vssd1 vccd1 vccd1 sky130_fd_sc_hd__fill_1
XFILLER_0_79 vssd1 vssd1 vccd1 vccd1 sky130_fd_sc_hd__decap_4
X_1871_ _1876_/CLK _1871_/D _1430_/X vssd1 vssd1 vccd1 vccd1 data_addr_o[0] sky130_fd_sc_hd__dfrtp_2
XFILLER_9_55 vssd1 vssd1 vccd1 vccd1 sky130_fd_sc_hd__fill_1
X_1940_ _1940_/CLK _1940_/D vssd1 vssd1 vccd1 vccd1 _1940_/Q sky130_fd_sc_hd__dfxtp_2
XFILLER_50_3 vssd1 vssd1 vccd1 vccd1 sky130_fd_sc_hd__decap_12
XFILLER_49_180 vssd1 vssd1 vccd1 vccd1 sky130_fd_sc_hd__decap_12
X_1305_ _1812_/Q _1758_/S _1812_/Q _1758_/S vssd1 vssd1 vccd1 vccd1 _1306_/A sky130_fd_sc_hd__a2bb2o_2
X_1236_ _1243_/A _1740_/S _1246_/A _1235_/Y vssd1 vssd1 vccd1 vccd1 _1466_/B sky130_fd_sc_hd__o2bb2a_2
X_1167_ _1924_/Q _1163_/X data_rdata_i[17] _1164_/X _1161_/X vssd1 vssd1 vccd1 vccd1
+ _1924_/D sky130_fd_sc_hd__o221a_2
X_1098_ _1945_/Q _1096_/X _1096_/X _1097_/Y vssd1 vssd1 vccd1 vccd1 _1945_/D sky130_fd_sc_hd__o2bb2ai_2
XFILLER_20_253 vssd1 vssd1 vccd1 vccd1 sky130_fd_sc_hd__decap_4
XFILLER_20_286 vssd1 vssd1 vccd1 vccd1 sky130_fd_sc_hd__decap_12
XFILLER_38_139 vssd1 vssd1 vccd1 vccd1 sky130_fd_sc_hd__fill_1
XFILLER_22_7 vssd1 vssd1 vccd1 vccd1 sky130_fd_sc_hd__fill_1
XFILLER_46_194 vssd1 vssd1 vccd1 vccd1 sky130_fd_sc_hd__fill_2
XFILLER_46_150 vssd1 vssd1 vccd1 vccd1 sky130_fd_sc_hd__fill_2
X_1021_ _1066_/A vssd1 vssd1 vccd1 vccd1 _1432_/B sky130_fd_sc_hd__inv_2
X_1923_ _1930_/CLK _1923_/D vssd1 vssd1 vccd1 vccd1 _1923_/Q sky130_fd_sc_hd__dfxtp_2
X_1854_ _1943_/CLK _1854_/D vssd1 vssd1 vccd1 vccd1 _1854_/Q sky130_fd_sc_hd__dfxtp_2
X_1785_ _1620_/B _1621_/X _1791_/S vssd1 vssd1 vccd1 vccd1 _1827_/D sky130_fd_sc_hd__mux2_1
XFILLER_29_139 vssd1 vssd1 vccd1 vccd1 sky130_fd_sc_hd__fill_1
XFILLER_29_106 vssd1 vssd1 vccd1 vccd1 sky130_fd_sc_hd__fill_1
X_1219_ _1804_/Q vssd1 vssd1 vccd1 vccd1 _1219_/Y sky130_fd_sc_hd__inv_2
XFILLER_29_52 vssd1 vssd1 vccd1 vccd1 sky130_fd_sc_hd__decap_4
XFILLER_28_150 vssd1 vssd1 vccd1 vccd1 sky130_fd_sc_hd__decap_12
XTAP_348 vssd1 vccd1 sky130_fd_sc_hd__tapvpwrvgnd_1
XTAP_337 vssd1 vccd1 sky130_fd_sc_hd__tapvpwrvgnd_1
XTAP_326 vssd1 vccd1 sky130_fd_sc_hd__tapvpwrvgnd_1
XTAP_315 vssd1 vccd1 sky130_fd_sc_hd__tapvpwrvgnd_1
XTAP_304 vssd1 vccd1 sky130_fd_sc_hd__tapvpwrvgnd_1
XFILLER_6_78 vssd1 vssd1 vccd1 vccd1 sky130_fd_sc_hd__decap_6
XFILLER_3_293 vssd1 vssd1 vccd1 vccd1 sky130_fd_sc_hd__decap_12
X_1570_ _1838_/Q _1570_/B vssd1 vssd1 vccd1 vccd1 _1570_/Y sky130_fd_sc_hd__nor2_2
XTAP_359 vssd1 vccd1 sky130_fd_sc_hd__tapvpwrvgnd_1
XFILLER_13_3 vssd1 vssd1 vccd1 vccd1 sky130_fd_sc_hd__decap_3
XFILLER_19_172 vssd1 vssd1 vccd1 vccd1 sky130_fd_sc_hd__decap_12
X_1004_ _1004_/A vssd1 vssd1 vccd1 vccd1 _1004_/X sky130_fd_sc_hd__buf_1
X_1768_ _1911_/Q _1919_/Q _1862_/Q vssd1 vssd1 vccd1 vccd1 _1768_/X sky130_fd_sc_hd__mux2_1
XANTENNA__0992__A1 data_wdata_o[7] vssd1 vssd1 vccd1 vccd1 sky130_fd_sc_hd__diode_2
X_1906_ _1940_/CLK _1906_/D vssd1 vssd1 vccd1 vccd1 data_we_o sky130_fd_sc_hd__dfxtp_2
X_1837_ _1842_/CLK _1837_/D vssd1 vssd1 vccd1 vccd1 _1837_/Q sky130_fd_sc_hd__dfxtp_2
X_1699_ vssd1 vssd1 vccd1 vccd1 data_be_o[3] _1699_/LO sky130_fd_sc_hd__conb_1
XFILLER_40_178 vssd1 vssd1 vccd1 vccd1 sky130_fd_sc_hd__decap_3
XFILLER_25_197 vssd1 vssd1 vccd1 vccd1 sky130_fd_sc_hd__decap_8
XFILLER_31_75 vssd1 vssd1 vccd1 vccd1 sky130_fd_sc_hd__decap_12
XANTENNA__0983__A1 data_wdata_o[8] vssd1 vssd1 vccd1 vccd1 sky130_fd_sc_hd__diode_2
XFILLER_48_289 vssd1 vssd1 vccd1 vccd1 sky130_fd_sc_hd__decap_12
XFILLER_48_245 vssd1 vssd1 vccd1 vccd1 sky130_fd_sc_hd__decap_6
XFILLER_31_167 vssd1 vssd1 vccd1 vccd1 sky130_fd_sc_hd__fill_1
XFILLER_31_123 vssd1 vssd1 vccd1 vccd1 sky130_fd_sc_hd__decap_4
XFILLER_31_101 vssd1 vssd1 vccd1 vccd1 sky130_fd_sc_hd__decap_8
XFILLER_16_164 vssd1 vssd1 vccd1 vccd1 sky130_fd_sc_hd__fill_1
XFILLER_16_186 vssd1 vssd1 vccd1 vccd1 sky130_fd_sc_hd__decap_8
X_1622_ _1828_/Q _1617_/X _1626_/B vssd1 vssd1 vccd1 vccd1 _1623_/A sky130_fd_sc_hd__a21bo_2
XTAP_145 vssd1 vccd1 sky130_fd_sc_hd__tapvpwrvgnd_1
XTAP_134 vssd1 vccd1 sky130_fd_sc_hd__tapvpwrvgnd_1
XTAP_123 vssd1 vccd1 sky130_fd_sc_hd__tapvpwrvgnd_1
XTAP_112 vssd1 vccd1 sky130_fd_sc_hd__tapvpwrvgnd_1
XTAP_156 vssd1 vccd1 sky130_fd_sc_hd__tapvpwrvgnd_1
X_1553_ _1553_/A vssd1 vssd1 vccd1 vccd1 _1553_/X sky130_fd_sc_hd__buf_1
XTAP_167 vssd1 vccd1 sky130_fd_sc_hd__tapvpwrvgnd_1
XTAP_178 vssd1 vccd1 sky130_fd_sc_hd__tapvpwrvgnd_1
XTAP_189 vssd1 vccd1 sky130_fd_sc_hd__tapvpwrvgnd_1
X_1484_ _1867_/Q _1333_/X _1483_/X _1349_/X vssd1 vssd1 vccd1 vccd1 _1867_/D sky130_fd_sc_hd__a31o_2
Xclkbuf_4_12_0_clk_i clkbuf_3_6_0_clk_i/X vssd1 vssd1 vccd1 vccd1 _1876_/CLK sky130_fd_sc_hd__clkbuf_2
XANTENNA__0965__A1 data_wdata_o[13] vssd1 vssd1 vccd1 vccd1 sky130_fd_sc_hd__diode_2
XFILLER_45_237 vssd1 vssd1 vccd1 vccd1 sky130_fd_sc_hd__decap_12
XFILLER_13_167 vssd1 vssd1 vccd1 vccd1 sky130_fd_sc_hd__fill_1
XFILLER_26_97 vssd1 vssd1 vccd1 vccd1 sky130_fd_sc_hd__decap_6
XFILLER_13_189 vssd1 vssd1 vccd1 vccd1 sky130_fd_sc_hd__decap_4
XFILLER_36_215 vssd1 vssd1 vccd1 vccd1 sky130_fd_sc_hd__decap_3
XFILLER_44_292 vssd1 vssd1 vccd1 vccd1 sky130_fd_sc_hd__decap_12
X_0984_ _0984_/A vssd1 vssd1 vccd1 vccd1 _0985_/A sky130_fd_sc_hd__buf_1
X_1536_ _0906_/B _1488_/X _1364_/A _1535_/X vssd1 vssd1 vccd1 vccd1 _1864_/D sky130_fd_sc_hd__o22ai_2
X_1605_ _1605_/A vssd1 vssd1 vccd1 vccd1 _1605_/X sky130_fd_sc_hd__buf_1
X_1398_ data_wdata_o[24] _1382_/X _1397_/X _1384_/X vssd1 vssd1 vccd1 vccd1 _1879_/D
+ sky130_fd_sc_hd__a22o_2
X_1467_ _1244_/A _1465_/X _1466_/B tx_o _1466_/Y vssd1 vssd1 vccd1 vccd1 _1851_/D
+ sky130_fd_sc_hd__a32o_2
XFILLER_50_251 vssd1 vssd1 vccd1 vccd1 sky130_fd_sc_hd__fill_1
XFILLER_35_281 vssd1 vssd1 vccd1 vccd1 sky130_fd_sc_hd__fill_1
XANTENNA__0938__A1 data_wdata_o[18] vssd1 vssd1 vccd1 vccd1 sky130_fd_sc_hd__diode_2
XFILLER_10_115 vssd1 vssd1 vccd1 vccd1 sky130_fd_sc_hd__decap_12
XFILLER_26_281 vssd1 vssd1 vccd1 vccd1 sky130_fd_sc_hd__fill_2
X_1321_ _1894_/Q vssd1 vssd1 vccd1 vccd1 _1321_/Y sky130_fd_sc_hd__inv_2
XANTENNA__1354__A1 data_addr_o[10] vssd1 vssd1 vccd1 vccd1 sky130_fd_sc_hd__diode_2
X_1252_ _1901_/Q _1256_/A _1902_/Q vssd1 vssd1 vccd1 vccd1 _1253_/C sky130_fd_sc_hd__o21a_2
X_1183_ _1916_/Q _1179_/X data_rdata_i[9] _1180_/X _1177_/X vssd1 vssd1 vccd1 vccd1
+ _1916_/D sky130_fd_sc_hd__o221a_2
XFILLER_24_218 vssd1 vssd1 vccd1 vccd1 sky130_fd_sc_hd__fill_1
X_0967_ _0967_/A vssd1 vssd1 vccd1 vccd1 _0967_/X sky130_fd_sc_hd__buf_1
X_1519_ _1519_/A vssd1 vssd1 vccd1 vccd1 _1791_/S sky130_fd_sc_hd__buf_1
XFILLER_15_229 vssd1 vssd1 vccd1 vccd1 sky130_fd_sc_hd__fill_1
XFILLER_9_12 vssd1 vssd1 vccd1 vccd1 sky130_fd_sc_hd__fill_1
XFILLER_9_67 vssd1 vssd1 vccd1 vccd1 sky130_fd_sc_hd__decap_8
X_1870_ _1903_/CLK _1870_/D vssd1 vssd1 vccd1 vccd1 _1870_/Q sky130_fd_sc_hd__dfxtp_2
XFILLER_43_3 vssd1 vssd1 vccd1 vccd1 sky130_fd_sc_hd__decap_12
XFILLER_49_192 vssd1 vssd1 vccd1 vccd1 sky130_fd_sc_hd__decap_12
X_1166_ _1925_/Q _1163_/X data_rdata_i[18] _1164_/X _1161_/X vssd1 vssd1 vccd1 vccd1
+ _1925_/D sky130_fd_sc_hd__o221a_2
X_1304_ _1304_/A _1304_/B vssd1 vssd1 vccd1 vccd1 _1758_/S sky130_fd_sc_hd__nor2_2
X_1235_ _1679_/A vssd1 vssd1 vccd1 vccd1 _1235_/Y sky130_fd_sc_hd__inv_2
X_1097_ _1075_/X _1773_/X _1846_/Q _1077_/X vssd1 vssd1 vccd1 vccd1 _1097_/Y sky130_fd_sc_hd__a22oi_2
XFILLER_20_232 vssd1 vssd1 vccd1 vccd1 sky130_fd_sc_hd__decap_3
XFILLER_20_298 vssd1 vssd1 vccd1 vccd1 sky130_fd_sc_hd__decap_8
XFILLER_18_54 vssd1 vssd1 vccd1 vccd1 sky130_fd_sc_hd__decap_12
XFILLER_34_97 vssd1 vssd1 vccd1 vccd1 sky130_fd_sc_hd__fill_1
XFILLER_7_247 vssd1 vssd1 vccd1 vccd1 sky130_fd_sc_hd__decap_6
XFILLER_50_63 vssd1 vssd1 vccd1 vccd1 sky130_fd_sc_hd__fill_2
X_1020_ _1811_/Q _1810_/Q vssd1 vssd1 vccd1 vccd1 _1066_/A sky130_fd_sc_hd__or2_2
X_1922_ _1930_/CLK _1922_/D vssd1 vssd1 vccd1 vccd1 _1922_/Q sky130_fd_sc_hd__dfxtp_2
X_1784_ _1624_/B _1625_/X _1791_/S vssd1 vssd1 vccd1 vccd1 _1828_/D sky130_fd_sc_hd__mux2_1
X_1853_ _1943_/CLK _1853_/D vssd1 vssd1 vccd1 vccd1 _1853_/Q sky130_fd_sc_hd__dfxtp_2
X_1149_ _1164_/A vssd1 vssd1 vccd1 vccd1 _1149_/X sky130_fd_sc_hd__buf_1
X_1218_ _1718_/X _1714_/X _1713_/X vssd1 vssd1 vccd1 vccd1 _1232_/C sky130_fd_sc_hd__or3_2
XFILLER_4_217 vssd1 vssd1 vccd1 vccd1 sky130_fd_sc_hd__fill_1
XFILLER_20_77 vssd1 vssd1 vccd1 vccd1 sky130_fd_sc_hd__fill_1
XFILLER_28_162 vssd1 vssd1 vccd1 vccd1 sky130_fd_sc_hd__fill_2
XFILLER_6_24 vssd1 vssd1 vccd1 vccd1 sky130_fd_sc_hd__fill_1
XTAP_349 vssd1 vccd1 sky130_fd_sc_hd__tapvpwrvgnd_1
XTAP_338 vssd1 vccd1 sky130_fd_sc_hd__tapvpwrvgnd_1
XTAP_327 vssd1 vccd1 sky130_fd_sc_hd__tapvpwrvgnd_1
XTAP_316 vssd1 vccd1 sky130_fd_sc_hd__tapvpwrvgnd_1
XTAP_305 vssd1 vccd1 sky130_fd_sc_hd__tapvpwrvgnd_1
XFILLER_19_184 vssd1 vssd1 vccd1 vccd1 sky130_fd_sc_hd__decap_3
X_1003_ _1003_/A vssd1 vssd1 vccd1 vccd1 _1004_/A sky130_fd_sc_hd__buf_1
X_1905_ _1940_/CLK _1905_/D vssd1 vssd1 vccd1 vccd1 data_req_o sky130_fd_sc_hd__dfxtp_2
XFILLER_22_305 vssd1 vssd1 vccd1 vccd1 sky130_fd_sc_hd__fill_1
X_1698_ vssd1 vssd1 vccd1 vccd1 data_be_o[2] _1698_/LO sky130_fd_sc_hd__conb_1
X_1767_ _1766_/X _1932_/Q _1860_/Q vssd1 vssd1 vccd1 vccd1 _1767_/X sky130_fd_sc_hd__mux2_1
X_1836_ _1842_/CLK _1836_/D vssd1 vssd1 vccd1 vccd1 _1836_/Q sky130_fd_sc_hd__dfxtp_2
XFILLER_25_110 vssd1 vssd1 vccd1 vccd1 sky130_fd_sc_hd__fill_2
XFILLER_31_87 vssd1 vssd1 vccd1 vccd1 sky130_fd_sc_hd__fill_2
XFILLER_0_253 vssd1 vssd1 vccd1 vccd1 sky130_fd_sc_hd__decap_12
XFILLER_16_143 vssd1 vssd1 vccd1 vccd1 sky130_fd_sc_hd__fill_1
X_1621_ _1621_/A vssd1 vssd1 vccd1 vccd1 _1621_/X sky130_fd_sc_hd__buf_1
X_1552_ _1557_/A _1552_/B vssd1 vssd1 vccd1 vccd1 _1553_/A sky130_fd_sc_hd__and2_2
XFILLER_39_257 vssd1 vssd1 vccd1 vccd1 sky130_fd_sc_hd__fill_2
XFILLER_39_213 vssd1 vssd1 vccd1 vccd1 sky130_fd_sc_hd__decap_4
XTAP_146 vssd1 vccd1 sky130_fd_sc_hd__tapvpwrvgnd_1
XTAP_135 vssd1 vccd1 sky130_fd_sc_hd__tapvpwrvgnd_1
XTAP_124 vssd1 vccd1 sky130_fd_sc_hd__tapvpwrvgnd_1
XTAP_113 vssd1 vccd1 sky130_fd_sc_hd__tapvpwrvgnd_1
XTAP_157 vssd1 vccd1 sky130_fd_sc_hd__tapvpwrvgnd_1
XTAP_168 vssd1 vccd1 sky130_fd_sc_hd__tapvpwrvgnd_1
XTAP_179 vssd1 vccd1 sky130_fd_sc_hd__tapvpwrvgnd_1
X_1483_ _1483_/A _1483_/B _1483_/C vssd1 vssd1 vccd1 vccd1 _1483_/X sky130_fd_sc_hd__or3_2
X_1819_ _1950_/CLK _1819_/D vssd1 vssd1 vccd1 vccd1 _1819_/Q sky130_fd_sc_hd__dfxtp_2
XFILLER_45_249 vssd1 vssd1 vccd1 vccd1 sky130_fd_sc_hd__decap_12
XFILLER_9_106 vssd1 vssd1 vccd1 vccd1 sky130_fd_sc_hd__decap_6
XFILLER_13_135 vssd1 vssd1 vccd1 vccd1 sky130_fd_sc_hd__decap_3
XFILLER_26_43 vssd1 vssd1 vccd1 vccd1 sky130_fd_sc_hd__fill_2
XFILLER_42_75 vssd1 vssd1 vccd1 vccd1 sky130_fd_sc_hd__decap_8
X_0983_ data_wdata_o[8] _0971_/X _0946_/X _0972_/X vssd1 vssd1 vccd1 vccd1 _1959_/D
+ sky130_fd_sc_hd__a22o_2
X_1535_ _1535_/A _1535_/B vssd1 vssd1 vccd1 vccd1 _1535_/X sky130_fd_sc_hd__and2_2
X_1604_ _1609_/A _1604_/B vssd1 vssd1 vccd1 vccd1 _1605_/A sky130_fd_sc_hd__and2_2
X_1397_ _1843_/Q vssd1 vssd1 vccd1 vccd1 _1397_/X sky130_fd_sc_hd__buf_1
X_1466_ _1679_/B _1466_/B vssd1 vssd1 vccd1 vccd1 _1466_/Y sky130_fd_sc_hd__nand2_2
XFILLER_42_208 vssd1 vssd1 vccd1 vccd1 sky130_fd_sc_hd__decap_6
XFILLER_10_127 vssd1 vssd1 vccd1 vccd1 sky130_fd_sc_hd__decap_12
XFILLER_37_53 vssd1 vssd1 vccd1 vccd1 sky130_fd_sc_hd__fill_1
X_1320_ _1313_/A _1313_/C _1476_/A _1319_/X vssd1 vssd1 vccd1 vccd1 _1895_/D sky130_fd_sc_hd__o22ai_2
X_1182_ _1917_/Q _1179_/X data_rdata_i[10] _1180_/X _1177_/X vssd1 vssd1 vccd1 vccd1
+ _1917_/D sky130_fd_sc_hd__o221a_2
X_1251_ _1251_/A vssd1 vssd1 vccd1 vccd1 _1465_/B sky130_fd_sc_hd__inv_2
XFILLER_32_230 vssd1 vssd1 vccd1 vccd1 sky130_fd_sc_hd__decap_3
X_0966_ _0969_/A vssd1 vssd1 vccd1 vccd1 _0967_/A sky130_fd_sc_hd__buf_1
X_1449_ _1449_/A vssd1 vssd1 vccd1 vccd1 _1449_/X sky130_fd_sc_hd__buf_1
XFILLER_4_90 vssd1 vssd1 vccd1 vccd1 sky130_fd_sc_hd__decap_8
X_1518_ _1514_/Y _1512_/Y _1817_/Q _1517_/Y _1515_/X vssd1 vssd1 vccd1 vccd1 _1518_/X
+ sky130_fd_sc_hd__a32o_2
XFILLER_3_3 vssd1 vssd1 vccd1 vccd1 sky130_fd_sc_hd__fill_2
XFILLER_2_101 vssd1 vssd1 vccd1 vccd1 sky130_fd_sc_hd__decap_3
XFILLER_48_85 vssd1 vssd1 vccd1 vccd1 sky130_fd_sc_hd__decap_8
XFILLER_48_41 vssd1 vssd1 vccd1 vccd1 sky130_fd_sc_hd__decap_12
XFILLER_0_15 vssd1 vssd1 vccd1 vccd1 sky130_fd_sc_hd__decap_12
XFILLER_9_57 vssd1 vssd1 vccd1 vccd1 sky130_fd_sc_hd__fill_2
XFILLER_36_3 vssd1 vssd1 vccd1 vccd1 sky130_fd_sc_hd__decap_4
X_1303_ _1840_/Q _1841_/Q _1575_/B _1303_/D vssd1 vssd1 vccd1 vccd1 _1304_/B sky130_fd_sc_hd__or4_2
X_1165_ _1926_/Q _1163_/X data_rdata_i[19] _1164_/X _1161_/X vssd1 vssd1 vccd1 vccd1
+ _1926_/D sky130_fd_sc_hd__o221a_2
XFILLER_37_300 vssd1 vssd1 vccd1 vccd1 sky130_fd_sc_hd__decap_6
X_1096_ _1096_/A vssd1 vssd1 vccd1 vccd1 _1096_/X sky130_fd_sc_hd__buf_1
X_1234_ _1903_/Q vssd1 vssd1 vccd1 vccd1 _1246_/A sky130_fd_sc_hd__buf_1
X_0949_ _0949_/A vssd1 vssd1 vccd1 vccd1 _0949_/X sky130_fd_sc_hd__buf_1
XFILLER_18_22 vssd1 vssd1 vccd1 vccd1 sky130_fd_sc_hd__decap_6
XFILLER_18_44 vssd1 vssd1 vccd1 vccd1 sky130_fd_sc_hd__fill_1
XFILLER_18_66 vssd1 vssd1 vccd1 vccd1 sky130_fd_sc_hd__fill_1
Xclkbuf_3_7_0_clk_i clkbuf_0_clk_i/X vssd1 vssd1 vccd1 vccd1 clkbuf_3_7_0_clk_i/X
+ sky130_fd_sc_hd__clkbuf_2
XFILLER_7_259 vssd1 vssd1 vccd1 vccd1 sky130_fd_sc_hd__decap_4
XFILLER_46_163 vssd1 vssd1 vccd1 vccd1 sky130_fd_sc_hd__decap_4
XFILLER_38_108 vssd1 vssd1 vccd1 vccd1 sky130_fd_sc_hd__fill_2
XANTENNA__1190__B1 data_rdata_i[5] vssd1 vssd1 vccd1 vccd1 sky130_fd_sc_hd__diode_2
X_1921_ _1945_/CLK _1921_/D vssd1 vssd1 vccd1 vccd1 _1921_/Q sky130_fd_sc_hd__dfxtp_2
X_1852_ _1903_/CLK _1852_/D vssd1 vssd1 vccd1 vccd1 _1852_/Q sky130_fd_sc_hd__dfxtp_2
X_1783_ _1628_/Y _1629_/Y _1791_/S vssd1 vssd1 vccd1 vccd1 _1829_/D sky130_fd_sc_hd__mux2_1
XANTENNA__1181__B1 data_rdata_i[11] vssd1 vssd1 vccd1 vccd1 sky130_fd_sc_hd__diode_2
X_1148_ _1163_/A vssd1 vssd1 vccd1 vccd1 _1148_/X sky130_fd_sc_hd__buf_1
X_1079_ _1949_/Q _1073_/X _1073_/X _1078_/Y vssd1 vssd1 vccd1 vccd1 _1949_/D sky130_fd_sc_hd__o2bb2ai_2
XFILLER_37_141 vssd1 vssd1 vccd1 vccd1 sky130_fd_sc_hd__decap_8
XFILLER_37_130 vssd1 vssd1 vccd1 vccd1 sky130_fd_sc_hd__decap_4
X_1217_ _1217_/A vssd1 vssd1 vccd1 vccd1 _1243_/A sky130_fd_sc_hd__inv_2
XFILLER_43_155 vssd1 vssd1 vccd1 vccd1 sky130_fd_sc_hd__decap_12
XTAP_339 vssd1 vccd1 sky130_fd_sc_hd__tapvpwrvgnd_1
XTAP_328 vssd1 vccd1 sky130_fd_sc_hd__tapvpwrvgnd_1
XTAP_317 vssd1 vccd1 sky130_fd_sc_hd__tapvpwrvgnd_1
XTAP_306 vssd1 vccd1 sky130_fd_sc_hd__tapvpwrvgnd_1
XFILLER_3_273 vssd1 vssd1 vccd1 vccd1 sky130_fd_sc_hd__decap_6
X_1002_ data_wdata_o[4] _0989_/X _0926_/X _0991_/X vssd1 vssd1 vccd1 vccd1 _1955_/D
+ sky130_fd_sc_hd__a22o_2
X_1904_ _1943_/CLK _1904_/D vssd1 vssd1 vccd1 vccd1 _1904_/Q sky130_fd_sc_hd__dfxtp_2
X_1835_ _1842_/CLK _1835_/D vssd1 vssd1 vccd1 vccd1 _1835_/Q sky130_fd_sc_hd__dfxtp_2
X_1697_ vssd1 vssd1 vccd1 vccd1 data_be_o[1] _1697_/LO sky130_fd_sc_hd__conb_1
X_1766_ _1765_/X _1924_/Q _1864_/Q vssd1 vssd1 vccd1 vccd1 _1766_/X sky130_fd_sc_hd__mux2_1
XANTENNA__1154__B1 data_rdata_i[24] vssd1 vssd1 vccd1 vccd1 sky130_fd_sc_hd__diode_2
XFILLER_15_34 vssd1 vssd1 vccd1 vccd1 sky130_fd_sc_hd__decap_8
XFILLER_15_78 vssd1 vssd1 vccd1 vccd1 sky130_fd_sc_hd__decap_6
XFILLER_25_100 vssd1 vssd1 vccd1 vccd1 sky130_fd_sc_hd__fill_2
XFILLER_31_66 vssd1 vssd1 vccd1 vccd1 sky130_fd_sc_hd__fill_1
XFILLER_31_55 vssd1 vssd1 vccd1 vccd1 sky130_fd_sc_hd__fill_1
XFILLER_0_221 vssd1 vssd1 vccd1 vccd1 sky130_fd_sc_hd__decap_3
XFILLER_0_265 vssd1 vssd1 vccd1 vccd1 sky130_fd_sc_hd__decap_12
XFILLER_31_136 vssd1 vssd1 vccd1 vccd1 sky130_fd_sc_hd__decap_6
X_1620_ _1632_/A _1620_/B vssd1 vssd1 vccd1 vccd1 _1621_/A sky130_fd_sc_hd__and2_2
XTAP_114 vssd1 vccd1 sky130_fd_sc_hd__tapvpwrvgnd_1
X_1551_ _1551_/A vssd1 vssd1 vccd1 vccd1 _1552_/B sky130_fd_sc_hd__buf_1
X_1482_ _1482_/A vssd1 vssd1 vccd1 vccd1 _1483_/B sky130_fd_sc_hd__buf_1
XFILLER_39_225 vssd1 vssd1 vccd1 vccd1 sky130_fd_sc_hd__decap_4
XTAP_147 vssd1 vccd1 sky130_fd_sc_hd__tapvpwrvgnd_1
XTAP_136 vssd1 vccd1 sky130_fd_sc_hd__tapvpwrvgnd_1
XTAP_125 vssd1 vccd1 sky130_fd_sc_hd__tapvpwrvgnd_1
XTAP_158 vssd1 vccd1 sky130_fd_sc_hd__tapvpwrvgnd_1
XTAP_169 vssd1 vccd1 sky130_fd_sc_hd__tapvpwrvgnd_1
XFILLER_22_136 vssd1 vssd1 vccd1 vccd1 sky130_fd_sc_hd__decap_4
XFILLER_22_147 vssd1 vssd1 vccd1 vccd1 sky130_fd_sc_hd__decap_4
XFILLER_30_191 vssd1 vssd1 vccd1 vccd1 sky130_fd_sc_hd__fill_1
X_1818_ _1950_/CLK _1818_/D vssd1 vssd1 vccd1 vccd1 _1818_/Q sky130_fd_sc_hd__dfxtp_2
X_1749_ _1663_/X _1664_/C _1749_/S vssd1 vssd1 vccd1 vccd1 _1749_/X sky130_fd_sc_hd__mux2_1
Xclkbuf_4_6_0_clk_i clkbuf_4_7_0_clk_i/A vssd1 vssd1 vccd1 vccd1 _1945_/CLK sky130_fd_sc_hd__clkbuf_2
XFILLER_42_65 vssd1 vssd1 vccd1 vccd1 sky130_fd_sc_hd__fill_1
XFILLER_13_103 vssd1 vssd1 vccd1 vccd1 sky130_fd_sc_hd__fill_1
XFILLER_13_169 vssd1 vssd1 vccd1 vccd1 sky130_fd_sc_hd__decap_6
XFILLER_51_209 vssd1 vssd1 vccd1 vccd1 sky130_fd_sc_hd__decap_12
XANTENNA__1469__A rx_i vssd1 vssd1 vccd1 vccd1 sky130_fd_sc_hd__diode_2
X_0982_ _0982_/A vssd1 vssd1 vccd1 vccd1 _0982_/X sky130_fd_sc_hd__buf_1
XFILLER_8_173 vssd1 vssd1 vccd1 vccd1 sky130_fd_sc_hd__decap_12
X_1603_ _1603_/A vssd1 vssd1 vccd1 vccd1 _1604_/B sky130_fd_sc_hd__buf_1
X_1534_ _1022_/X _1036_/Y _1868_/Q _1533_/X vssd1 vssd1 vccd1 vccd1 _1868_/D sky130_fd_sc_hd__a22o_2
X_1465_ _1852_/Q _1465_/B vssd1 vssd1 vccd1 vccd1 _1465_/X sky130_fd_sc_hd__or2_2
X_1396_ _1396_/A vssd1 vssd1 vccd1 vccd1 _1396_/X sky130_fd_sc_hd__buf_1
XFILLER_50_253 vssd1 vssd1 vccd1 vccd1 sky130_fd_sc_hd__decap_12
XFILLER_10_139 vssd1 vssd1 vccd1 vccd1 sky130_fd_sc_hd__fill_1
XFILLER_2_305 vssd1 vssd1 vccd1 vccd1 sky130_fd_sc_hd__fill_1
XFILLER_26_294 vssd1 vssd1 vccd1 vccd1 sky130_fd_sc_hd__decap_12
XFILLER_41_264 vssd1 vssd1 vccd1 vccd1 sky130_fd_sc_hd__decap_3
X_1181_ _1918_/Q _1179_/X data_rdata_i[11] _1180_/X _1177_/X vssd1 vssd1 vccd1 vccd1
+ _1918_/D sky130_fd_sc_hd__o221a_2
X_1250_ _1250_/A vssd1 vssd1 vccd1 vccd1 _1250_/X sky130_fd_sc_hd__buf_1
XFILLER_32_275 vssd1 vssd1 vccd1 vccd1 sky130_fd_sc_hd__fill_2
XFILLER_32_253 vssd1 vssd1 vccd1 vccd1 sky130_fd_sc_hd__decap_4